*SPEF "IEEE 1481-1998"
*DESIGN "i_ahb_DW_ahb"
*DATE "Sun Apr  6 18:29:39 2014"
*VENDOR "Silicon Perspective, A Cadence Company"
*PROGRAM "Encounter"
*VERSION "09.11-s084_1"
*DESIGN_FLOW "PIN_CAP NONE" "NAME_SCOPE LOCAL"
*DIVIDER /
*DELIMITER :
*BUS_DELIMITER []
*T_UNIT 1 NS
*C_UNIT 1 PF
*R_UNIT 1 OHM
*L_UNIT 1 HENRY

*NAME_MAP

*1 hclk
*2 hresetn
*3 haddr_m1[31]
*4 haddr_m1[30]
*5 haddr_m1[29]
*6 haddr_m1[28]
*7 haddr_m1[27]
*8 haddr_m1[26]
*9 haddr_m1[25]
*10 haddr_m1[24]
*11 haddr_m1[23]
*12 haddr_m1[22]
*13 haddr_m1[21]
*14 haddr_m1[20]
*15 haddr_m1[19]
*16 haddr_m1[18]
*17 haddr_m1[17]
*18 haddr_m1[16]
*19 haddr_m1[15]
*20 haddr_m1[14]
*21 haddr_m1[13]
*22 haddr_m1[12]
*23 haddr_m1[11]
*24 haddr_m1[10]
*25 haddr_m1[9]
*26 haddr_m1[8]
*27 haddr_m1[7]
*28 haddr_m1[6]
*29 haddr_m1[5]
*30 haddr_m1[4]
*31 haddr_m1[3]
*32 haddr_m1[2]
*33 haddr_m1[1]
*34 haddr_m1[0]
*35 hburst_m1[2]
*36 hburst_m1[1]
*37 hburst_m1[0]
*38 hbusreq_m1
*39 hlock_m1
*40 hprot_m1[3]
*41 hprot_m1[2]
*42 hprot_m1[1]
*43 hprot_m1[0]
*44 hsize_m1[2]
*45 hsize_m1[1]
*46 hsize_m1[0]
*47 htrans_m1[1]
*48 htrans_m1[0]
*49 hwdata_m1[31]
*50 hwdata_m1[30]
*51 hwdata_m1[29]
*52 hwdata_m1[28]
*53 hwdata_m1[27]
*54 hwdata_m1[26]
*55 hwdata_m1[25]
*56 hwdata_m1[24]
*57 hwdata_m1[23]
*58 hwdata_m1[22]
*59 hwdata_m1[21]
*60 hwdata_m1[20]
*61 hwdata_m1[19]
*62 hwdata_m1[18]
*63 hwdata_m1[17]
*64 hwdata_m1[16]
*65 hwdata_m1[15]
*66 hwdata_m1[14]
*67 hwdata_m1[13]
*68 hwdata_m1[12]
*69 hwdata_m1[11]
*70 hwdata_m1[10]
*71 hwdata_m1[9]
*72 hwdata_m1[8]
*73 hwdata_m1[7]
*74 hwdata_m1[6]
*75 hwdata_m1[5]
*76 hwdata_m1[4]
*77 hwdata_m1[3]
*78 hwdata_m1[2]
*79 hwdata_m1[1]
*80 hwdata_m1[0]
*81 hwrite_m1
*82 hgrant_m1
*83 hsel_s0
*84 hready_resp_s0
*85 hresp_s0[0]
*86 hrdata_s0[29]
*87 hrdata_s0[28]
*88 hrdata_s0[25]
*89 hrdata_s0[21]
*90 hrdata_s0[20]
*91 hrdata_s0[13]
*92 hrdata_s0[12]
*93 hrdata_s0[11]
*94 hrdata_s0[9]
*95 hrdata_s0[8]
*96 hrdata_s0[7]
*97 hrdata_s0[6]
*98 hrdata_s0[5]
*99 hrdata_s0[4]
*100 hrdata_s0[3]
*101 hrdata_s0[2]
*102 hrdata_s0[1]
*103 hrdata_s0[0]
*104 hsel_s1
*105 hready_resp_s1
*106 hresp_s1[1]
*107 hresp_s1[0]
*108 hrdata_s1[31]
*109 hrdata_s1[30]
*110 hrdata_s1[29]
*111 hrdata_s1[28]
*112 hrdata_s1[27]
*113 hrdata_s1[26]
*114 hrdata_s1[25]
*115 hrdata_s1[24]
*116 hrdata_s1[23]
*117 hrdata_s1[22]
*118 hrdata_s1[21]
*119 hrdata_s1[20]
*120 hrdata_s1[19]
*121 hrdata_s1[18]
*122 hrdata_s1[17]
*123 hrdata_s1[16]
*124 hrdata_s1[15]
*125 hrdata_s1[14]
*126 hrdata_s1[13]
*127 hrdata_s1[12]
*128 hrdata_s1[11]
*129 hrdata_s1[10]
*130 hrdata_s1[9]
*131 hrdata_s1[8]
*132 hrdata_s1[7]
*133 hrdata_s1[6]
*134 hrdata_s1[5]
*135 hrdata_s1[4]
*136 hrdata_s1[3]
*137 hrdata_s1[2]
*138 hrdata_s1[1]
*139 hrdata_s1[0]
*140 hsel_s2
*141 hready_resp_s2
*142 hresp_s2[1]
*143 hresp_s2[0]
*144 hrdata_s2[31]
*145 hrdata_s2[30]
*146 hrdata_s2[29]
*147 hrdata_s2[28]
*148 hrdata_s2[27]
*149 hrdata_s2[26]
*150 hrdata_s2[25]
*151 hrdata_s2[24]
*152 hrdata_s2[23]
*153 hrdata_s2[22]
*154 hrdata_s2[21]
*155 hrdata_s2[20]
*156 hrdata_s2[19]
*157 hrdata_s2[18]
*158 hrdata_s2[17]
*159 hrdata_s2[16]
*160 hrdata_s2[15]
*161 hrdata_s2[14]
*162 hrdata_s2[13]
*163 hrdata_s2[12]
*164 hrdata_s2[11]
*165 hrdata_s2[10]
*166 hrdata_s2[9]
*167 hrdata_s2[8]
*168 hrdata_s2[7]
*169 hrdata_s2[6]
*170 hrdata_s2[5]
*171 hrdata_s2[4]
*172 hrdata_s2[3]
*173 hrdata_s2[2]
*174 hrdata_s2[1]
*175 hrdata_s2[0]
*176 haddr[31]
*177 haddr[30]
*178 haddr[29]
*179 haddr[28]
*180 haddr[27]
*181 haddr[26]
*182 haddr[25]
*183 haddr[24]
*184 haddr[23]
*185 haddr[22]
*186 haddr[21]
*187 haddr[20]
*188 haddr[19]
*189 haddr[18]
*190 haddr[17]
*191 haddr[16]
*192 haddr[15]
*193 haddr[14]
*194 haddr[13]
*195 haddr[12]
*196 haddr[11]
*197 haddr[10]
*198 haddr[9]
*199 haddr[8]
*200 haddr[7]
*201 haddr[6]
*202 haddr[5]
*203 haddr[4]
*204 haddr[3]
*205 haddr[2]
*206 haddr[1]
*207 haddr[0]
*208 hburst[2]
*209 hburst[1]
*210 hburst[0]
*211 hprot[3]
*212 hprot[2]
*213 hprot[1]
*214 hprot[0]
*215 hsize[2]
*216 hsize[1]
*217 hsize[0]
*218 htrans[1]
*219 htrans[0]
*220 hwdata[31]
*221 hwdata[30]
*222 hwdata[29]
*223 hwdata[28]
*224 hwdata[27]
*225 hwdata[26]
*226 hwdata[25]
*227 hwdata[24]
*228 hwdata[23]
*229 hwdata[22]
*230 hwdata[21]
*231 hwdata[20]
*232 hwdata[19]
*233 hwdata[18]
*234 hwdata[17]
*235 hwdata[16]
*236 hwdata[15]
*237 hwdata[14]
*238 hwdata[13]
*239 hwdata[12]
*240 hwdata[11]
*241 hwdata[10]
*242 hwdata[9]
*243 hwdata[8]
*244 hwdata[7]
*245 hwdata[6]
*246 hwdata[5]
*247 hwdata[4]
*248 hwdata[3]
*249 hwdata[2]
*250 hwdata[1]
*251 hwdata[0]
*252 hwrite
*253 hready
*254 hresp[1]
*255 hresp[0]
*256 hrdata[31]
*257 hrdata[30]
*258 hrdata[29]
*259 hrdata[28]
*260 hrdata[27]
*261 hrdata[26]
*262 hrdata[25]
*263 hrdata[24]
*264 hrdata[23]
*265 hrdata[22]
*266 hrdata[21]
*267 hrdata[20]
*268 hrdata[19]
*269 hrdata[18]
*270 hrdata[17]
*271 hrdata[16]
*272 hrdata[15]
*273 hrdata[14]
*274 hrdata[13]
*275 hrdata[12]
*276 hrdata[11]
*277 hrdata[10]
*278 hrdata[9]
*279 hrdata[8]
*280 hrdata[7]
*281 hrdata[6]
*282 hrdata[5]
*283 hrdata[4]
*284 hrdata[3]
*285 hrdata[2]
*286 hrdata[1]
*287 hrdata[0]
*288 ahbarbint
*289 hmaster_data[0]
*290 hmastlock
*291 n10
*292 n4
*293 hresp_none_0_
*294 U_mux_n58
*295 U_mux_n57
*296 U_mux_n56
*297 U_mux_n55
*298 U_mux_n54
*299 U_mux_n53
*300 U_mux_n52
*301 U_mux_n51
*302 U_mux_n50
*303 U_mux_n49
*304 U_mux_n48
*305 U_mux_n47
*306 U_mux_n46
*307 U_mux_n45
*308 U_mux_n44
*309 U_mux_n43
*310 U_mux_n42
*311 U_mux_n41
*312 U_mux_n40
*313 U_mux_n39
*314 U_mux_n38
*315 U_mux_n37
*316 U_mux_n36
*317 U_mux_n35
*318 U_mux_n34
*319 U_mux_n33
*320 U_mux_n32
*321 U_mux_n31
*322 U_mux_n30
*323 U_mux_n29
*324 U_mux_n28
*325 U_mux_n27
*326 U_mux_n26
*327 U_mux_n25
*328 U_mux_n24
*329 U_mux_n23
*330 U_mux_n22
*331 U_mux_n21
*332 U_mux_n20
*333 U_mux_n19
*334 U_mux_n18
*335 U_mux_n17
*336 U_mux_n16
*337 U_mux_n15
*338 U_mux_n14
*339 U_mux_n12
*340 U_mux_n4
*341 U_mux_n3
*342 U_mux_n2
*343 U_mux_n10
*344 U_mux_n9
*345 U_mux_n8
*346 U_mux_n7
*347 U_mux_hsel_prev_0_
*348 U_mux_hsel_prev_1_
*349 U_mux_hsel_prev_2_
*350 U_dcdr_n16
*351 U_dcdr_n15
*352 U_dcdr_n14
*353 U_dcdr_n13
*354 U_dcdr_n12
*355 U_dcdr_n11
*356 U_dcdr_n10
*357 U_dcdr_n6
*358 U_dcdr_n5
*359 U_arb_ibus_hbusreq_1_
*360 U_arb_parked_2t
*361 U_arb_mask_1_
*362 U_arb_est
*363 U_arb_csilt
*364 U_arb_int_set_ebt
*365 U_arb_ltip
*366 U_arb_grant_changed
*367 U_arb_new_tfr
*368 U_arb_maskmaster_1_
*369 U_arb_def_mst_0_
*370 U_arb_ebten
*371 U_arb_clr_arbint
*372 U_dfltslv_n5
*373 U_dfltslv_n3
*374 U_dfltslv_n1
*375 U_dfltslv_N4
*376 U_dfltslv_current_state
*377 U_arb_U_gctrl_n179
*378 U_arb_U_gctrl_n178
*379 U_arb_U_gctrl_n177
*380 U_arb_U_gctrl_n176
*381 U_arb_U_gctrl_n175
*382 U_arb_U_gctrl_n174
*383 U_arb_U_gctrl_n173
*384 U_arb_U_gctrl_n171
*385 U_arb_U_gctrl_n170
*386 U_arb_U_gctrl_n169
*387 U_arb_U_gctrl_n168
*388 U_arb_U_gctrl_n167
*389 U_arb_U_gctrl_n166
*390 U_arb_U_gctrl_n165
*391 U_arb_U_gctrl_n164
*392 U_arb_U_gctrl_n163
*393 U_arb_U_gctrl_n162
*394 U_arb_U_gctrl_n161
*395 U_arb_U_gctrl_n160
*396 U_arb_U_gctrl_n159
*397 U_arb_U_gctrl_n158
*398 U_arb_U_gctrl_n157
*399 U_arb_U_gctrl_n156
*400 U_arb_U_gctrl_n155
*401 U_arb_U_gctrl_n154
*402 U_arb_U_gctrl_n153
*403 U_arb_U_gctrl_n152
*404 U_arb_U_gctrl_n151
*405 U_arb_U_gctrl_n150
*406 U_arb_U_gctrl_n149
*407 U_arb_U_gctrl_n148
*408 U_arb_U_gctrl_n147
*409 U_arb_U_gctrl_n146
*410 U_arb_U_gctrl_n145
*411 U_arb_U_gctrl_n144
*412 U_arb_U_gctrl_n143
*413 U_arb_U_gctrl_n142
*414 U_arb_U_gctrl_n141
*415 U_arb_U_gctrl_n140
*416 U_arb_U_gctrl_n139
*417 U_arb_U_gctrl_n138
*418 U_arb_U_gctrl_n137
*419 U_arb_U_gctrl_n136
*420 U_arb_U_gctrl_n135
*421 U_arb_U_gctrl_n134
*422 U_arb_U_gctrl_n133
*423 U_arb_U_gctrl_n132
*424 U_arb_U_gctrl_n131
*425 U_arb_U_gctrl_n130
*426 U_arb_U_gctrl_n129
*427 U_arb_U_gctrl_n128
*428 U_arb_U_gctrl_n127
*429 U_arb_U_gctrl_n126
*430 U_arb_U_gctrl_n125
*431 U_arb_U_gctrl_n124
*432 U_arb_U_gctrl_n123
*433 U_arb_U_gctrl_n122
*434 U_arb_U_gctrl_n121
*435 U_arb_U_gctrl_n120
*436 U_arb_U_gctrl_n119
*437 U_arb_U_gctrl_n118
*438 U_arb_U_gctrl_n117
*439 U_arb_U_gctrl_n116
*440 U_arb_U_gctrl_n115
*441 U_arb_U_gctrl_n114
*442 U_arb_U_gctrl_n113
*443 U_arb_U_gctrl_n112
*444 U_arb_U_gctrl_n111
*445 U_arb_U_gctrl_n110
*446 U_arb_U_gctrl_n109
*447 U_arb_U_gctrl_n108
*448 U_arb_U_gctrl_n107
*449 U_arb_U_gctrl_n106
*450 U_arb_U_gctrl_n105
*451 U_arb_U_gctrl_n104
*452 U_arb_U_gctrl_n103
*453 U_arb_U_gctrl_n102
*454 U_arb_U_gctrl_n101
*455 U_arb_U_gctrl_n100
*456 U_arb_U_gctrl_n84
*457 U_arb_U_gctrl_n83
*458 U_arb_U_gctrl_n82
*459 U_arb_U_gctrl_n81
*460 U_arb_U_gctrl_n80
*461 U_arb_U_gctrl_n79
*462 U_arb_U_gctrl_n78
*463 U_arb_U_gctrl_n77
*464 U_arb_U_gctrl_n76
*465 U_arb_U_gctrl_n75
*466 U_arb_U_gctrl_n74
*467 U_arb_U_gctrl_n73
*468 U_arb_U_gctrl_n72
*469 U_arb_U_gctrl_n71
*470 U_arb_U_gctrl_n70
*471 U_arb_U_gctrl_n69
*472 U_arb_U_gctrl_n68
*473 U_arb_U_gctrl_n67
*474 U_arb_U_gctrl_n66
*475 U_arb_U_gctrl_n65
*476 U_arb_U_gctrl_n64
*477 U_arb_U_gctrl_n63
*478 U_arb_U_gctrl_n62
*479 U_arb_U_gctrl_n61
*480 U_arb_U_gctrl_n60
*481 U_arb_U_gctrl_n59
*482 U_arb_U_gctrl_n58
*483 U_arb_U_gctrl_n57
*484 U_arb_U_gctrl_n56
*485 U_arb_U_gctrl_n55
*486 U_arb_U_gctrl_n54
*487 U_arb_U_gctrl_n53
*488 U_arb_U_gctrl_n52
*489 U_arb_U_gctrl_n51
*490 U_arb_U_gctrl_n48
*491 U_arb_U_gctrl_n47
*492 U_arb_U_gctrl_n46
*493 U_arb_U_gctrl_n45
*494 U_arb_U_gctrl_n44
*495 U_arb_U_gctrl_n43
*496 U_arb_U_gctrl_n42
*497 U_arb_U_gctrl_n41
*498 U_arb_U_gctrl_n38
*499 U_arb_U_gctrl_n37
*500 U_arb_U_gctrl_n36
*501 U_arb_U_gctrl_n35
*502 U_arb_U_gctrl_n34
*503 U_arb_U_gctrl_n33
*504 U_arb_U_gctrl_n32
*505 U_arb_U_gctrl_n31
*506 U_arb_U_gctrl_n30
*507 U_arb_U_gctrl_n28
*508 U_arb_U_gctrl_n27
*509 U_arb_U_gctrl_n26
*510 U_arb_U_gctrl_n25
*511 U_arb_U_gctrl_n24
*512 U_arb_U_gctrl_n23
*513 U_arb_U_gctrl_n22
*514 U_arb_U_gctrl_n21
*515 U_arb_U_gctrl_n20
*516 U_arb_U_gctrl_n19
*517 U_arb_U_gctrl_n18
*518 U_arb_U_gctrl_n17
*519 U_arb_U_gctrl_n16
*520 U_arb_U_gctrl_n15
*521 U_arb_U_gctrl_n14
*522 U_arb_U_gctrl_n13
*523 U_arb_U_gctrl_n12
*524 U_arb_U_gctrl_n11
*525 U_arb_U_gctrl_n10
*526 U_arb_U_gctrl_n9
*527 U_arb_U_gctrl_n8
*528 U_arb_U_gctrl_n6
*529 U_arb_U_gctrl_n5
*530 U_arb_U_gctrl_n3
*531 U_arb_U_gctrl_n2
*532 U_arb_U_gctrl_n1
*533 U_arb_U_gctrl_n99
*534 U_arb_U_gctrl_n98
*535 U_arb_U_gctrl_n97
*536 U_arb_U_gctrl_n96
*537 U_arb_U_gctrl_n95
*538 U_arb_U_gctrl_n94
*539 U_arb_U_gctrl_n93
*540 U_arb_U_gctrl_n92
*541 U_arb_U_gctrl_n91
*542 U_arb_U_gctrl_n90
*543 U_arb_U_gctrl_n89
*544 U_arb_U_gctrl_n88
*545 U_arb_U_gctrl_n87
*546 U_arb_U_gctrl_n86
*547 U_arb_U_gctrl_n85
*548 U_arb_U_gctrl_r_hmaster_d_0_
*549 U_arb_U_gctrl_wasinn
*550 U_arb_U_gctrl_nxt_lock_sm_1_
*551 U_arb_U_gctrl_nxt_lock_sm_2_
*552 U_arb_U_gctrl_lock_sm_0_
*553 U_arb_U_gctrl_lock_sm_1_
*554 U_arb_U_gctrl_lock_sm_2_
*555 U_arb_U_gctrl_bbc_0_
*556 U_arb_U_gctrl_bbc_1_
*557 U_arb_U_gctrl_bbc_2_
*558 U_arb_U_gctrl_bbc_3_
*559 U_arb_U_gctrl_bc_0_
*560 U_arb_U_gctrl_bc_1_
*561 U_arb_U_gctrl_bc_2_
*562 U_arb_U_gctrl_bc_3_
*563 U_arb_U_gctrl_n181
*564 U_arb_U_mask_n17
*565 U_arb_U_mask_n16
*566 U_arb_U_mask_n15
*567 U_arb_U_mask_n14
*568 U_arb_U_mask_n13
*569 U_arb_U_mask_n12
*570 U_arb_U_mask_n10
*571 U_arb_U_mask_n9
*572 U_arb_U_mask_n8
*573 U_arb_U_mask_n4
*574 U_arb_U_mask_n3
*575 U_arb_U_mask_n2
*576 U_arb_U_mask_n1
*577 U_arb_U_mask_n7
*578 U_arb_U_mask_n6
*579 U_arb_U_mask_n5
*580 U_arb_U_mask_r_mask_locked_1_
*581 U_arb_U_ebt_n61
*582 U_arb_U_ebt_n60
*583 U_arb_U_ebt_n59
*584 U_arb_U_ebt_n58
*585 U_arb_U_ebt_n57
*586 U_arb_U_ebt_n56
*587 U_arb_U_ebt_n55
*588 U_arb_U_ebt_n53
*589 U_arb_U_ebt_n52
*590 U_arb_U_ebt_n51
*591 U_arb_U_ebt_n50
*592 U_arb_U_ebt_n49
*593 U_arb_U_ebt_n48
*594 U_arb_U_ebt_n47
*595 U_arb_U_ebt_n46
*596 U_arb_U_ebt_n45
*597 U_arb_U_ebt_n44
*598 U_arb_U_ebt_n43
*599 U_arb_U_ebt_n42
*600 U_arb_U_ebt_n41
*601 U_arb_U_ebt_n40
*602 U_arb_U_ebt_n39
*603 U_arb_U_ebt_n38
*604 U_arb_U_ebt_n37
*605 U_arb_U_ebt_n36
*606 U_arb_U_ebt_n35
*607 U_arb_U_ebt_n22
*608 U_arb_U_ebt_n21
*609 U_arb_U_ebt_n20
*610 U_arb_U_ebt_n19
*611 U_arb_U_ebt_n18
*612 U_arb_U_ebt_n17
*613 U_arb_U_ebt_n16
*614 U_arb_U_ebt_n15
*615 U_arb_U_ebt_n14
*616 U_arb_U_ebt_n13
*617 U_arb_U_ebt_n12
*618 U_arb_U_ebt_n11
*619 U_arb_U_ebt_n9
*620 U_arb_U_ebt_n8
*621 U_arb_U_ebt_n7
*622 U_arb_U_ebt_n6
*623 U_arb_U_ebt_n5
*624 U_arb_U_ebt_n4
*625 U_arb_U_ebt_n3
*626 U_arb_U_ebt_n2
*627 U_arb_U_ebt_n1
*628 U_arb_U_ebt_n34
*629 U_arb_U_ebt_n33
*630 U_arb_U_ebt_n32
*631 U_arb_U_ebt_n31
*632 U_arb_U_ebt_n30
*633 U_arb_U_ebt_n29
*634 U_arb_U_ebt_n28
*635 U_arb_U_ebt_n27
*636 U_arb_U_ebt_n26
*637 U_arb_U_ebt_n25
*638 U_arb_U_ebt_n24
*639 U_arb_U_ebt_n23
*640 U_arb_U_ebt_int_reg_set_ebt
*641 U_arb_U_ebt_int_count_0_
*642 U_arb_U_ebt_int_count_1_
*643 U_arb_U_ebt_int_count_2_
*644 U_arb_U_ebt_int_count_3_
*645 U_arb_U_ebt_int_count_4_
*646 U_arb_U_ebt_int_count_5_
*647 U_arb_U_ebt_int_count_6_
*648 U_arb_U_ebt_int_count_7_
*649 U_arb_U_ebt_int_count_8_
*650 U_arb_U_ebt_int_count_9_
*651 U_arb_U_ebt_int_current_state_0_
*652 U_arb_U_ebt_int_current_state_1_
*653 U_arb_U_arbif_n198
*654 U_arb_U_arbif_n197
*655 U_arb_U_arbif_n196
*656 U_arb_U_arbif_n195
*657 U_arb_U_arbif_n194
*658 U_arb_U_arbif_n193
*659 U_arb_U_arbif_n192
*660 U_arb_U_arbif_n191
*661 U_arb_U_arbif_n190
*662 U_arb_U_arbif_n189
*663 U_arb_U_arbif_n188
*664 U_arb_U_arbif_n187
*665 U_arb_U_arbif_n186
*666 U_arb_U_arbif_n185
*667 U_arb_U_arbif_n184
*668 U_arb_U_arbif_n183
*669 U_arb_U_arbif_n182
*670 U_arb_U_arbif_n181
*671 U_arb_U_arbif_n180
*672 U_arb_U_arbif_n179
*673 U_arb_U_arbif_n178
*674 U_arb_U_arbif_n172
*675 U_arb_U_arbif_n171
*676 U_arb_U_arbif_n170
*677 U_arb_U_arbif_n161
*678 U_arb_U_arbif_n142
*679 U_arb_U_arbif_n141
*680 U_arb_U_arbif_n140
*681 U_arb_U_arbif_n119
*682 U_arb_U_arbif_n118
*683 U_arb_U_arbif_n117
*684 U_arb_U_arbif_n116
*685 U_arb_U_arbif_n115
*686 U_arb_U_arbif_n114
*687 U_arb_U_arbif_n113
*688 U_arb_U_arbif_n112
*689 U_arb_U_arbif_n111
*690 U_arb_U_arbif_n110
*691 U_arb_U_arbif_n109
*692 U_arb_U_arbif_n108
*693 U_arb_U_arbif_n107
*694 U_arb_U_arbif_n106
*695 U_arb_U_arbif_n105
*696 U_arb_U_arbif_n104
*697 U_arb_U_arbif_n103
*698 U_arb_U_arbif_n102
*699 U_arb_U_arbif_n101
*700 U_arb_U_arbif_n100
*701 U_arb_U_arbif_n99
*702 U_arb_U_arbif_n98
*703 U_arb_U_arbif_n97
*704 U_arb_U_arbif_n96
*705 U_arb_U_arbif_n95
*706 U_arb_U_arbif_n94
*707 U_arb_U_arbif_n91
*708 U_arb_U_arbif_n90
*709 U_arb_U_arbif_n87
*710 U_arb_U_arbif_n86
*711 U_arb_U_arbif_n84
*712 U_arb_U_arbif_n83
*713 U_arb_U_arbif_n82
*714 U_arb_U_arbif_n81
*715 U_arb_U_arbif_n80
*716 U_arb_U_arbif_n79
*717 U_arb_U_arbif_n78
*718 U_arb_U_arbif_n76
*719 U_arb_U_arbif_n75
*720 U_arb_U_arbif_n74
*721 U_arb_U_arbif_n73
*722 U_arb_U_arbif_n72
*723 U_arb_U_arbif_n71
*724 U_arb_U_arbif_n70
*725 U_arb_U_arbif_n69
*726 U_arb_U_arbif_n68
*727 U_arb_U_arbif_n67
*728 U_arb_U_arbif_n66
*729 U_arb_U_arbif_n65
*730 U_arb_U_arbif_n64
*731 U_arb_U_arbif_n63
*732 U_arb_U_arbif_n62
*733 U_arb_U_arbif_n61
*734 U_arb_U_arbif_n60
*735 U_arb_U_arbif_n59
*736 U_arb_U_arbif_n58
*737 U_arb_U_arbif_n57
*738 U_arb_U_arbif_n56
*739 U_arb_U_arbif_n55
*740 U_arb_U_arbif_n54
*741 U_arb_U_arbif_n53
*742 U_arb_U_arbif_n52
*743 U_arb_U_arbif_n51
*744 U_arb_U_arbif_n50
*745 U_arb_U_arbif_n49
*746 U_arb_U_arbif_n48
*747 U_arb_U_arbif_n47
*748 U_arb_U_arbif_n46
*749 U_arb_U_arbif_n45
*750 U_arb_U_arbif_n44
*751 U_arb_U_arbif_n43
*752 U_arb_U_arbif_n42
*753 U_arb_U_arbif_n41
*754 U_arb_U_arbif_n40
*755 U_arb_U_arbif_n39
*756 U_arb_U_arbif_n38
*757 U_arb_U_arbif_n34
*758 U_arb_U_arbif_n33
*759 U_arb_U_arbif_n32
*760 U_arb_U_arbif_n31
*761 U_arb_U_arbif_n30
*762 U_arb_U_arbif_n29
*763 U_arb_U_arbif_n28
*764 U_arb_U_arbif_n27
*765 U_arb_U_arbif_n26
*766 U_arb_U_arbif_n25
*767 U_arb_U_arbif_n24
*768 U_arb_U_arbif_n23
*769 U_arb_U_arbif_n22
*770 U_arb_U_arbif_n21
*771 U_arb_U_arbif_n20
*772 U_arb_U_arbif_n19
*773 U_arb_U_arbif_n18
*774 U_arb_U_arbif_n17
*775 U_arb_U_arbif_n14
*776 U_arb_U_arbif_n13
*777 U_arb_U_arbif_n12
*778 U_arb_U_arbif_n11
*779 U_arb_U_arbif_n8
*780 U_arb_U_arbif_n7
*781 U_arb_U_arbif_n6
*782 U_arb_U_arbif_n5
*783 U_arb_U_arbif_n3
*784 U_arb_U_arbif_n2
*785 U_arb_U_arbif_n1
*786 U_arb_U_arbif_n215
*787 U_arb_U_arbif_n177
*788 U_arb_U_arbif_n176
*789 U_arb_U_arbif_n175
*790 U_arb_U_arbif_n174
*791 U_arb_U_arbif_n173
*792 U_arb_U_arbif_n169
*793 U_arb_U_arbif_n168
*794 U_arb_U_arbif_n167
*795 U_arb_U_arbif_n166
*796 U_arb_U_arbif_n165
*797 U_arb_U_arbif_n164
*798 U_arb_U_arbif_n163
*799 U_arb_U_arbif_n162
*800 U_arb_U_arbif_n160
*801 U_arb_U_arbif_n159
*802 U_arb_U_arbif_n158
*803 U_arb_U_arbif_n157
*804 U_arb_U_arbif_n156
*805 U_arb_U_arbif_n155
*806 U_arb_U_arbif_n154
*807 U_arb_U_arbif_n153
*808 U_arb_U_arbif_n152
*809 U_arb_U_arbif_n151
*810 U_arb_U_arbif_n150
*811 U_arb_U_arbif_n149
*812 U_arb_U_arbif_n148
*813 U_arb_U_arbif_n147
*814 U_arb_U_arbif_n146
*815 U_arb_U_arbif_n145
*816 U_arb_U_arbif_n144
*817 U_arb_U_arbif_n143
*818 U_arb_U_arbif_n139
*819 U_arb_U_arbif_n138
*820 U_arb_U_arbif_n137
*821 U_arb_U_arbif_n136
*822 U_arb_U_arbif_n135
*823 U_arb_U_arbif_n134
*824 U_arb_U_arbif_n133
*825 U_arb_U_arbif_n132
*826 U_arb_U_arbif_n131
*827 U_arb_U_arbif_n130
*828 U_arb_U_arbif_n129
*829 U_arb_U_arbif_n128
*830 U_arb_U_arbif_n127
*831 U_arb_U_arbif_n126
*832 U_arb_U_arbif_n125
*833 U_arb_U_arbif_n124
*834 U_arb_U_arbif_n123
*835 U_arb_U_arbif_n122
*836 U_arb_U_arbif_n121
*837 U_arb_U_arbif_n120
*838 U_arb_U_arbif_int_ebt
*839 U_arb_U_arbif_r_state_0_
*840 U_arb_U_arbif_r_state_1_
*841 U_arb_U_arbif_N72
*842 U_arb_U_arbif_nxt_state_0_
*843 U_arb_U_arbif_nxt_state_1_
*844 U_arb_U_arbif_r_hmaster_d_0_
*845 U_arb_U_arbif_r_hsize_d_0_
*846 U_arb_U_arbif_r_hsize_d_1_
*847 U_arb_U_arbif_r_hsize_d_2_
*848 U_arb_U_arbif_r_hwrite_d
*849 U_arb_U_arbif_r_htrans_d_1_
*850 U_arb_U_arbif_r_haddr_d_0_
*851 U_arb_U_arbif_r_haddr_d_2_
*852 U_arb_U_arbif_r_haddr_d_3_
*853 U_arb_U_arbif_r_haddr_d_4_
*854 U_arb_U_arbif_r_haddr_d_5_
*855 U_arb_U_arbif_r_haddr_d_6_
*856 U_arb_U_arbif_r_haddr_d_7_
*857 U_arb_U_arbif_r_haddr_d_8_
*858 U_arb_U_arbif_r_haddr_d_9_
*859 U_arb_U_arbif_r_hsel_arb_d
*860 U_arb_U_arbif_ebten
*861 n12
*862 n13
*863 n14
*864 n15
*865 n16
*866 n17
*867 n19
*868 n20
*869 n21
*870 n22
*871 n23
*872 U_arb_grant_2t[1]
*873 U_arb_grant_2t[0]
*874 U_arb_bus_priority[7]
*875 U_arb_bus_priority[6]
*876 U_arb_bus_priority[5]
*877 U_arb_bus_priority[4]
*878 U_arb_ebtcount[9]
*879 U_arb_ebtcount[8]
*880 U_arb_ebtcount[7]
*881 U_arb_ebtcount[6]
*882 U_arb_ebtcount[5]
*883 U_arb_ebtcount[4]
*884 U_arb_ebtcount[3]
*885 U_arb_ebtcount[2]
*886 U_arb_ebtcount[1]
*887 U_arb_ebtcount[0]
*888 U_arb_U_gctrl_hgrant_previous[1]
*889 U_arb_U_gctrl_hgrant_previous[0]
*890 U_arb_U_ebt_next_state[1]
*891 U_arb_U_ebt_next_state[0]
*892 U_arb_U_arbif_ipl1[3]
*893 U_arb_U_arbif_ipl1[2]
*894 U_arb_U_arbif_ipl1[1]
*895 U_arb_U_arbif_ipl1[0]
*896 U4
*897 U_mux_U88
*898 U_mux_U87
*899 U_mux_U86
*900 U_mux_U85
*901 U_mux_U84
*902 U_mux_U83
*903 U_mux_U81
*904 U_mux_U80
*905 U_mux_U79
*906 U_mux_U78
*907 U_mux_U77
*908 U_mux_U76
*909 U_mux_U74
*910 U_mux_U73
*911 U_mux_U72
*912 U_mux_U71
*913 U_mux_U70
*914 U_mux_U69
*915 U_mux_U68
*916 U_mux_U67
*917 U_mux_U66
*918 U_mux_U65
*919 U_mux_U64
*920 U_mux_U63
*921 U_mux_U62
*922 U_mux_U61
*923 U_mux_U60
*924 U_mux_U59
*925 U_mux_U58
*926 U_mux_U57
*927 U_mux_U56
*928 U_mux_U55
*929 U_mux_U54
*930 U_mux_U53
*931 U_mux_U52
*932 U_mux_U51
*933 U_mux_U50
*934 U_mux_U49
*935 U_mux_U48
*936 U_mux_U47
*937 U_mux_U46
*938 U_mux_U45
*939 U_mux_U44
*940 U_mux_U43
*941 U_mux_U42
*942 U_mux_U41
*943 U_mux_U40
*944 U_mux_U39
*945 U_mux_U38
*946 U_mux_U37
*947 U_mux_U36
*948 U_mux_U35
*949 U_mux_U34
*950 U_mux_U33
*951 U_mux_U32
*952 U_mux_U31
*953 U_mux_U30
*954 U_mux_U29
*955 U_mux_U28
*956 U_mux_U27
*957 U_mux_U26
*958 U_mux_U25
*959 U_mux_U23
*960 U_mux_U22
*961 U_mux_U21
*962 U_mux_U20
*963 U_mux_U19
*964 U_mux_U18
*965 U_mux_U17
*966 U_mux_U16
*967 U_mux_U15
*968 U_mux_U14
*969 U_mux_U13
*970 U_mux_U12
*971 U_mux_U11
*972 U_mux_U10
*973 U_mux_U9
*974 U_mux_U8
*975 U_mux_U7
*976 U_mux_U6
*977 U_mux_U5
*978 U_mux_U4
*979 U_mux_U3
*980 U_mux_r_ihmaster_data_reg_0_
*981 U_mux_hsel_prev_reg_1_
*982 U_mux_hsel_prev_reg_2_
*983 U_mux_hsel_prev_reg_0_
*984 U_dcdr_U21
*985 U_dcdr_U20
*986 U_dcdr_U19
*987 U_dcdr_U16
*988 U_dcdr_U15
*989 U_dcdr_U14
*990 U_dcdr_U10
*991 U_dcdr_U6
*992 U_dcdr_U4
*993 U_dcdr_U3
*994 U_arb_U5
*995 U_arb_U3
*996 U_dfltslv_U6
*997 U_dfltslv_U3
*998 U_dfltslv_hresp_none_reg_0_
*999 U_dfltslv_current_state_reg
*1000 U_mux_U_dm_U33
*1001 U_mux_U_dm_U32
*1002 U_mux_U_dm_U31
*1003 U_mux_U_dm_U30
*1004 U_mux_U_dm_U29
*1005 U_mux_U_dm_U28
*1006 U_mux_U_dm_U27
*1007 U_mux_U_dm_U26
*1008 U_mux_U_dm_U25
*1009 U_mux_U_dm_U24
*1010 U_mux_U_dm_U23
*1011 U_mux_U_dm_U22
*1012 U_mux_U_dm_U21
*1013 U_mux_U_dm_U20
*1014 U_mux_U_dm_U19
*1015 U_mux_U_dm_U18
*1016 U_mux_U_dm_U17
*1017 U_mux_U_dm_U16
*1018 U_mux_U_dm_U15
*1019 U_mux_U_dm_U14
*1020 U_mux_U_dm_U13
*1021 U_mux_U_dm_U12
*1022 U_mux_U_dm_U11
*1023 U_mux_U_dm_U10
*1024 U_mux_U_dm_U9
*1025 U_mux_U_dm_U8
*1026 U_mux_U_dm_U7
*1027 U_mux_U_dm_U6
*1028 U_mux_U_dm_U5
*1029 U_mux_U_dm_U4
*1030 U_mux_U_dm_U3
*1031 U_mux_U_dm_U2
*1032 U_mux_U_hw_U2
*1033 U_mux_U_p_U6
*1034 U_mux_U_p_U5
*1035 U_mux_U_p_U4
*1036 U_mux_U_p_U3
*1037 U_mux_U_s_U4
*1038 U_mux_U_s_U3
*1039 U_mux_U_s_U2
*1040 U_mux_U_b_U4
*1041 U_mux_U_b_U3
*1042 U_mux_U_b_U2
*1043 U_mux_U_t_U3
*1044 U_mux_U_t_U2
*1045 U_mux_U_a_U33
*1046 U_mux_U_a_U32
*1047 U_mux_U_a_U31
*1048 U_mux_U_a_U30
*1049 U_mux_U_a_U29
*1050 U_mux_U_a_U28
*1051 U_mux_U_a_U27
*1052 U_mux_U_a_U26
*1053 U_mux_U_a_U25
*1054 U_mux_U_a_U24
*1055 U_mux_U_a_U23
*1056 U_mux_U_a_U22
*1057 U_mux_U_a_U21
*1058 U_mux_U_a_U20
*1059 U_mux_U_a_U19
*1060 U_mux_U_a_U18
*1061 U_mux_U_a_U17
*1062 U_mux_U_a_U16
*1063 U_mux_U_a_U15
*1064 U_mux_U_a_U14
*1065 U_mux_U_a_U13
*1066 U_mux_U_a_U12
*1067 U_mux_U_a_U11
*1068 U_mux_U_a_U10
*1069 U_mux_U_a_U9
*1070 U_mux_U_a_U8
*1071 U_mux_U_a_U7
*1072 U_mux_U_a_U6
*1073 U_mux_U_a_U5
*1074 U_mux_U_a_U4
*1075 U_mux_U_a_U3
*1076 U_mux_U_a_U2
*1077 U_arb_U_gctrl_U172
*1078 U_arb_U_gctrl_U171
*1079 U_arb_U_gctrl_U170
*1080 U_arb_U_gctrl_U169
*1081 U_arb_U_gctrl_U168
*1082 U_arb_U_gctrl_U167
*1083 U_arb_U_gctrl_U165
*1084 U_arb_U_gctrl_U164
*1085 U_arb_U_gctrl_U162
*1086 U_arb_U_gctrl_U161
*1087 U_arb_U_gctrl_U160
*1088 U_arb_U_gctrl_U159
*1089 U_arb_U_gctrl_U158
*1090 U_arb_U_gctrl_U157
*1091 U_arb_U_gctrl_U156
*1092 U_arb_U_gctrl_U155
*1093 U_arb_U_gctrl_U154
*1094 U_arb_U_gctrl_U153
*1095 U_arb_U_gctrl_U152
*1096 U_arb_U_gctrl_U151
*1097 U_arb_U_gctrl_U149
*1098 U_arb_U_gctrl_U147
*1099 U_arb_U_gctrl_U146
*1100 U_arb_U_gctrl_U145
*1101 U_arb_U_gctrl_U144
*1102 U_arb_U_gctrl_U143
*1103 U_arb_U_gctrl_U142
*1104 U_arb_U_gctrl_U141
*1105 U_arb_U_gctrl_U140
*1106 U_arb_U_gctrl_U139
*1107 U_arb_U_gctrl_U138
*1108 U_arb_U_gctrl_U137
*1109 U_arb_U_gctrl_U136
*1110 U_arb_U_gctrl_U133
*1111 U_arb_U_gctrl_U132
*1112 U_arb_U_gctrl_U131
*1113 U_arb_U_gctrl_U130
*1114 U_arb_U_gctrl_U129
*1115 U_arb_U_gctrl_U128
*1116 U_arb_U_gctrl_U127
*1117 U_arb_U_gctrl_U126
*1118 U_arb_U_gctrl_U125
*1119 U_arb_U_gctrl_U124
*1120 U_arb_U_gctrl_U123
*1121 U_arb_U_gctrl_U122
*1122 U_arb_U_gctrl_U121
*1123 U_arb_U_gctrl_U120
*1124 U_arb_U_gctrl_U119
*1125 U_arb_U_gctrl_U118
*1126 U_arb_U_gctrl_U117
*1127 U_arb_U_gctrl_U116
*1128 U_arb_U_gctrl_U115
*1129 U_arb_U_gctrl_U114
*1130 U_arb_U_gctrl_U113
*1131 U_arb_U_gctrl_U112
*1132 U_arb_U_gctrl_U111
*1133 U_arb_U_gctrl_U110
*1134 U_arb_U_gctrl_U109
*1135 U_arb_U_gctrl_U108
*1136 U_arb_U_gctrl_U107
*1137 U_arb_U_gctrl_U106
*1138 U_arb_U_gctrl_U105
*1139 U_arb_U_gctrl_U104
*1140 U_arb_U_gctrl_U103
*1141 U_arb_U_gctrl_U102
*1142 U_arb_U_gctrl_U101
*1143 U_arb_U_gctrl_U100
*1144 U_arb_U_gctrl_U99
*1145 U_arb_U_gctrl_U98
*1146 U_arb_U_gctrl_U97
*1147 U_arb_U_gctrl_U96
*1148 U_arb_U_gctrl_U95
*1149 U_arb_U_gctrl_U94
*1150 U_arb_U_gctrl_U93
*1151 U_arb_U_gctrl_U92
*1152 U_arb_U_gctrl_U91
*1153 U_arb_U_gctrl_U90
*1154 U_arb_U_gctrl_U89
*1155 U_arb_U_gctrl_U88
*1156 U_arb_U_gctrl_U87
*1157 U_arb_U_gctrl_U86
*1158 U_arb_U_gctrl_U85
*1159 U_arb_U_gctrl_U84
*1160 U_arb_U_gctrl_U83
*1161 U_arb_U_gctrl_U82
*1162 U_arb_U_gctrl_U81
*1163 U_arb_U_gctrl_U80
*1164 U_arb_U_gctrl_U79
*1165 U_arb_U_gctrl_U78
*1166 U_arb_U_gctrl_U77
*1167 U_arb_U_gctrl_U76
*1168 U_arb_U_gctrl_U75
*1169 U_arb_U_gctrl_U74
*1170 U_arb_U_gctrl_U73
*1171 U_arb_U_gctrl_U72
*1172 U_arb_U_gctrl_U71
*1173 U_arb_U_gctrl_U69
*1174 U_arb_U_gctrl_U67
*1175 U_arb_U_gctrl_U66
*1176 U_arb_U_gctrl_U65
*1177 U_arb_U_gctrl_U64
*1178 U_arb_U_gctrl_U63
*1179 U_arb_U_gctrl_U62
*1180 U_arb_U_gctrl_U61
*1181 U_arb_U_gctrl_U60
*1182 U_arb_U_gctrl_U59
*1183 U_arb_U_gctrl_U58
*1184 U_arb_U_gctrl_U56
*1185 U_arb_U_gctrl_U55
*1186 U_arb_U_gctrl_U54
*1187 U_arb_U_gctrl_U53
*1188 U_arb_U_gctrl_U52
*1189 U_arb_U_gctrl_U50
*1190 U_arb_U_gctrl_U49
*1191 U_arb_U_gctrl_U48
*1192 U_arb_U_gctrl_U47
*1193 U_arb_U_gctrl_U46
*1194 U_arb_U_gctrl_U45
*1195 U_arb_U_gctrl_U44
*1196 U_arb_U_gctrl_U43
*1197 U_arb_U_gctrl_U42
*1198 U_arb_U_gctrl_U41
*1199 U_arb_U_gctrl_U40
*1200 U_arb_U_gctrl_U39
*1201 U_arb_U_gctrl_U38
*1202 U_arb_U_gctrl_U37
*1203 U_arb_U_gctrl_U35
*1204 U_arb_U_gctrl_U34
*1205 U_arb_U_gctrl_U33
*1206 U_arb_U_gctrl_U32
*1207 U_arb_U_gctrl_U31
*1208 U_arb_U_gctrl_U30
*1209 U_arb_U_gctrl_U29
*1210 U_arb_U_gctrl_U28
*1211 U_arb_U_gctrl_U27
*1212 U_arb_U_gctrl_U26
*1213 U_arb_U_gctrl_U25
*1214 U_arb_U_gctrl_U24
*1215 U_arb_U_gctrl_U23
*1216 U_arb_U_gctrl_U22
*1217 U_arb_U_gctrl_U21
*1218 U_arb_U_gctrl_U20
*1219 U_arb_U_gctrl_U19
*1220 U_arb_U_gctrl_U18
*1221 U_arb_U_gctrl_U17
*1222 U_arb_U_gctrl_U16
*1223 U_arb_U_gctrl_U15
*1224 U_arb_U_gctrl_U14
*1225 U_arb_U_gctrl_U12
*1226 U_arb_U_gctrl_U11
*1227 U_arb_U_gctrl_U10
*1228 U_arb_U_gctrl_U8
*1229 U_arb_U_gctrl_U7
*1230 U_arb_U_gctrl_U6
*1231 U_arb_U_gctrl_U5
*1232 U_arb_U_gctrl_U4
*1233 U_arb_U_gctrl_U3
*1234 U_arb_U_gctrl_ihlock_reg
*1235 U_arb_U_gctrl_r_hmaster_reg_0_
*1236 U_arb_U_gctrl_lock_sm_reg_0_
*1237 U_arb_U_gctrl_ihmastlock_reg
*1238 U_arb_U_gctrl_bc_reg_3_
*1239 U_arb_U_gctrl_bc_reg_2_
*1240 U_arb_U_gctrl_bc_reg_1_
*1241 U_arb_U_gctrl_bc_reg_0_
*1242 U_arb_U_gctrl_hgrant_previous_reg_0_
*1243 U_arb_U_gctrl_bus_hgrant_reg_0_
*1244 U_arb_U_gctrl_r_hmaster_d_reg_0_
*1245 U_arb_U_gctrl_wasinn_reg
*1246 U_arb_U_gctrl_lock_sm_reg_1_
*1247 U_arb_U_gctrl_lock_sm_reg_2_
*1248 U_arb_U_gctrl_hgrant_previous_reg_1_
*1249 U_arb_U_gctrl_bus_hgrant_reg_1_
*1250 U_arb_U_gctrl_csilt_reg
*1251 U_arb_U_gctrl_bbc_reg_3_
*1252 U_arb_U_gctrl_bbc_reg_2_
*1253 U_arb_U_gctrl_bbc_reg_1_
*1254 U_arb_U_gctrl_bbc_reg_0_
*1255 U_arb_U_mask_U19
*1256 U_arb_U_mask_U18
*1257 U_arb_U_mask_U17
*1258 U_arb_U_mask_U14
*1259 U_arb_U_mask_U13
*1260 U_arb_U_mask_U12
*1261 U_arb_U_mask_U11
*1262 U_arb_U_mask_U9
*1263 U_arb_U_mask_U8
*1264 U_arb_U_mask_U7
*1265 U_arb_U_mask_U6
*1266 U_arb_U_mask_U5
*1267 U_arb_U_mask_U4
*1268 U_arb_U_mask_U3
*1269 U_arb_U_mask_extend_ltip_reg
*1270 U_arb_U_mask_r_rec_hsplit_reg_1_
*1271 U_arb_U_mask_r_mask_locked_reg_1_
*1272 U_arb_U_ebt_U60
*1273 U_arb_U_ebt_U59
*1274 U_arb_U_ebt_U58
*1275 U_arb_U_ebt_U57
*1276 U_arb_U_ebt_U56
*1277 U_arb_U_ebt_U55
*1278 U_arb_U_ebt_U54
*1279 U_arb_U_ebt_U53
*1280 U_arb_U_ebt_U52
*1281 U_arb_U_ebt_U51
*1282 U_arb_U_ebt_U50
*1283 U_arb_U_ebt_U49
*1284 U_arb_U_ebt_U48
*1285 U_arb_U_ebt_U47
*1286 U_arb_U_ebt_U46
*1287 U_arb_U_ebt_U45
*1288 U_arb_U_ebt_U44
*1289 U_arb_U_ebt_U43
*1290 U_arb_U_ebt_U42
*1291 U_arb_U_ebt_U41
*1292 U_arb_U_ebt_U40
*1293 U_arb_U_ebt_U39
*1294 U_arb_U_ebt_U38
*1295 U_arb_U_ebt_U37
*1296 U_arb_U_ebt_U36
*1297 U_arb_U_ebt_U35
*1298 U_arb_U_ebt_U34
*1299 U_arb_U_ebt_U33
*1300 U_arb_U_ebt_U32
*1301 U_arb_U_ebt_U31
*1302 U_arb_U_ebt_U30
*1303 U_arb_U_ebt_U29
*1304 U_arb_U_ebt_U28
*1305 U_arb_U_ebt_U27
*1306 U_arb_U_ebt_U26
*1307 U_arb_U_ebt_U25
*1308 U_arb_U_ebt_U24
*1309 U_arb_U_ebt_U23
*1310 U_arb_U_ebt_U21
*1311 U_arb_U_ebt_U19
*1312 U_arb_U_ebt_U18
*1313 U_arb_U_ebt_U17
*1314 U_arb_U_ebt_U16
*1315 U_arb_U_ebt_U15
*1316 U_arb_U_ebt_U14
*1317 U_arb_U_ebt_U13
*1318 U_arb_U_ebt_U12
*1319 U_arb_U_ebt_U11
*1320 U_arb_U_ebt_U10
*1321 U_arb_U_ebt_U9
*1322 U_arb_U_ebt_U8
*1323 U_arb_U_ebt_U7
*1324 U_arb_U_ebt_U6
*1325 U_arb_U_ebt_U5
*1326 U_arb_U_ebt_U4
*1327 U_arb_U_ebt_U3
*1328 U_arb_U_ebt_int_ahbarbint_reg
*1329 U_arb_U_ebt_int_reg_set_ebt_reg
*1330 U_arb_U_ebt_int_count_reg_2_
*1331 U_arb_U_ebt_int_count_reg_3_
*1332 U_arb_U_ebt_int_count_reg_4_
*1333 U_arb_U_ebt_int_count_reg_5_
*1334 U_arb_U_ebt_int_count_reg_6_
*1335 U_arb_U_ebt_int_count_reg_7_
*1336 U_arb_U_ebt_int_count_reg_8_
*1337 U_arb_U_ebt_int_count_reg_9_
*1338 U_arb_U_ebt_int_current_state_reg_0_
*1339 U_arb_U_ebt_int_current_state_reg_1_
*1340 U_arb_U_ebt_int_count_reg_1_
*1341 U_arb_U_ebt_int_count_reg_0_
*1342 U_arb_U_arbif_U174
*1343 U_arb_U_arbif_U173
*1344 U_arb_U_arbif_U172
*1345 U_arb_U_arbif_U171
*1346 U_arb_U_arbif_U170
*1347 U_arb_U_arbif_U169
*1348 U_arb_U_arbif_U168
*1349 U_arb_U_arbif_U167
*1350 U_arb_U_arbif_U166
*1351 U_arb_U_arbif_U165
*1352 U_arb_U_arbif_U164
*1353 U_arb_U_arbif_U163
*1354 U_arb_U_arbif_U162
*1355 U_arb_U_arbif_U161
*1356 U_arb_U_arbif_U160
*1357 U_arb_U_arbif_U159
*1358 U_arb_U_arbif_U158
*1359 U_arb_U_arbif_U157
*1360 U_arb_U_arbif_U156
*1361 U_arb_U_arbif_U155
*1362 U_arb_U_arbif_U154
*1363 U_arb_U_arbif_U153
*1364 U_arb_U_arbif_U152
*1365 U_arb_U_arbif_U151
*1366 U_arb_U_arbif_U150
*1367 U_arb_U_arbif_U149
*1368 U_arb_U_arbif_U148
*1369 U_arb_U_arbif_U147
*1370 U_arb_U_arbif_U146
*1371 U_arb_U_arbif_U145
*1372 U_arb_U_arbif_U144
*1373 U_arb_U_arbif_U143
*1374 U_arb_U_arbif_U142
*1375 U_arb_U_arbif_U141
*1376 U_arb_U_arbif_U140
*1377 U_arb_U_arbif_U139
*1378 U_arb_U_arbif_U138
*1379 U_arb_U_arbif_U137
*1380 U_arb_U_arbif_U136
*1381 U_arb_U_arbif_U135
*1382 U_arb_U_arbif_U134
*1383 U_arb_U_arbif_U133
*1384 U_arb_U_arbif_U132
*1385 U_arb_U_arbif_U131
*1386 U_arb_U_arbif_U130
*1387 U_arb_U_arbif_U129
*1388 U_arb_U_arbif_U128
*1389 U_arb_U_arbif_U127
*1390 U_arb_U_arbif_U126
*1391 U_arb_U_arbif_U125
*1392 U_arb_U_arbif_U124