*SPEF "IEEE 1481-1998"
*DESIGN "counter"
*DATE "Wed Mar 13 12:58:25 2013"
*VENDOR "Silicon Perspective, A Cadence Company"
*PROGRAM "Encounter"
*VERSION "09.11-s084_1"
*DESIGN_FLOW "COUPLING C" "PIN_CAP NONE" "NAME_SCOPE LOCAL"
*DIVIDER /
*DELIMITER :
*BUS_DELIMITER []
*T_UNIT 1 NS
*C_UNIT 1 PF
*R_UNIT 1 OHM
*L_UNIT 1 HENRY

*NAME_MAP

*1 FE_PHN0_latch
*2 FE_PHN10_n43
*3 FE_PHN11_n45
*4 FE_PHN12_n38
*5 FE_PHN13_n43
*6 FE_PHN14_n45
*7 FE_PHN1_n52
*8 FE_PHN2_n50
*9 FE_PHN3_n46
*10 FE_PHN4_n51
*11 FE_PHN5_n32
*12 FE_PHN6_n50
*13 FE_PHN7_n51
*14 FE_PHN8_n32
*15 FE_PHN9_n52
*16 clock
*17 clock__L1_N0
*18 clock__L2_N0
*19 dec
*20 in[0]
*21 in[1]
*22 in[2]
*23 in[3]
*24 latch
*25 n31
*26 n32
*27 n33
*28 n34
*29 n35
*30 n36
*31 n37
*32 n38
*33 n39
*34 n40
*35 n41
*36 n42
*37 n43
*38 n44
*39 n45
*40 n46
*41 n47
*42 n48
*43 n49
*44 n50
*45 n51
*46 n52
*47 sub_42_S2_A_0_
*48 sub_42_S2_A_1_
*49 sub_42_S2_A_2_
*50 sub_42_S2_A_3_
*51 zero
*52 FE_PHC14_n45
*53 FE_PHC13_n43
*54 FE_PHC12_n38
*55 FE_PHC11_n45
*56 FE_PHC10_n43
*57 FE_PHC9_n52
*58 FE_PHC8_n32
*59 FE_PHC7_n51
*60 FE_PHC6_n50
*61 FE_PHC5_n32
*62 FE_PHC4_n51
*63 FE_PHC3_n46
*64 FE_PHC2_n50
*65 FE_PHC1_n52
*66 FE_PHC0_latch
*67 clock__L2_I0
*68 clock__L1_I0
*69 value_reg_0_
*70 value_reg_1_
*71 value_reg_2_
*72 value_reg_3_
*73 U9
*74 U15
*75 U18
*76 U19
*77 U20
*78 U21
*79 U22
*80 U23
*81 U24
*82 U25
*83 U26
*84 U27
*85 U28
*86 U29
*87 U30
*88 U31
*89 U32
*90 U33
*91 U34
*92 U35


*PORTS

*16 I *C 44.935 0
*23 I *C 44.555 0
*22 I *C 44.365 90.04
*21 I *C 45.315 90.04
*20 I *C 45.695 0
*24 I *C 44.385 0
*19 I *C 0 43.89
*51 O *C 0 43.61


*D_NET *25 1.858e-05

*CONN
*I *87:B2 I *C 43 41 *L 0.00116 *D OAI21_X2
*I *72:QN O *C 43 41 *L 0 *D DFF_X1

*CAP
1 *72:QN 9.29e-06
2 *87:B2 9.29e-06

*RES
1 *72:QN *87:B2 1.03143
*END

*D_NET *31 7.158e-05

*CONN
*I *80:A3 I *C 41 43 *L 0.00123 *D NOR3_X2
*I *79:ZN O *C 40 43 *L 0 *D INV_X4

*CAP
1 *79:ZN 3.579e-05
2 *80:A3 3.579e-05

*RES
1 *79:ZN *80:A3 4.12571
*END

*D_NET *13 1.79e-05

*CONN
*I *62:A I *C 48 46 *L 0.00044 *D BUF_X32
*I *59:Z O *C 46 46 *L 0 *D BUF_X32

*CAP
1 *59:Z 8.95e-06
2 *62:A 8.95e-06

*RES
1 *59:Z *62:A 1.03143
*END

*D_NET *29 1.858e-05

*CONN
*I *89:B2 I *C 43 47 *L 0.00116 *D OAI21_X2
*I *71:QN O *C 43 47 *L 0 *D DFF_X1

*CAP
1 *71:QN 9.29e-06
2 *89:B2 9.29e-06

*RES
1 *71:QN *89:B2 1.03143
*END

*D_NET *7 0.00017336

*CONN
*I *72:D I *C 40 40 *L 0.000901 *D DFF_X1
*I *65:Z O *C 41 41 *L 0 *D BUF_X32

*CAP
1 *65:Z 1.896e-05
2 *7:2 3.1e-05
3 *7:3 4.542e-05
4 *7:4 3.672e-05
5 *7:5 2.23e-05
6 *72:D 1.896e-05

*RES
1 *7:5 *72:D 4
2 *7:5 *7:4 2
3 *7:4 *7:3 0.678571
4 *7:3 *7:2 2
5 *65:Z *7:2 4
*END

*D_NET *8 0.000258

*CONN
*I *71:D I *C 40 47 *L 0.000901 *D DFF_X1
*I *64:Z O *C 41 46 *L 0 *D BUF_X32

*CAP
1 *64:Z 1.896e-05
2 *8:2 4.984e-05
3 *8:3 6.426e-05
4 *8:4 6.02e-05
5 *8:5 4.578e-05
6 *71:D 1.896e-05

*RES
1 *8:5 *71:D 4
2 *8:4 *8:5 2
3 *8:4 *8:3 0.678571
4 *8:2 *8:3 2
5 *64:Z *8:2 4
*END

*D_NET *50 0.0001781

*CONN
*I *75:A4 I *C 42 43 *L 0.00138 *D NOR4_X2
*I *72:Q O *C 42 41 *L 0 *D DFF_X1

*CAP
1 *72:Q 1.896e-05
2 *50:2 7.009e-05
3 *50:3 7.009e-05
4 *75:A4 1.896e-05

*RES
1 *50:3 *75:A4 4
2 *50:2 *50:3 9.5
3 *72:Q *50:2 4
*END

*D_NET *32 0.00034472

*CONN
*I *90:ZN O *C 44 47 *L 0 *D AOI22_X2
*I *54:A I *C 43 49 *L 0.000528 *D CLKBUF_X1

*CAP
1 *90:ZN 3.579e-05
2 *32:2 4.527e-05
3 *32:3 6.385e-05
4 *32:4 6.385e-05
5 *54:A 1.896e-05
6 *32:4 *44:4 5.85e-05
7 *32:3 *44:3 5.85e-05

*RES
1 *32:4 *54:A 4
2 *32:3 *32:4 5
3 *32:2 *32:3 4
4 *32:2 *90:ZN 4.12571
*END

*D_NET *4 0.0003134

*CONN
*I *89:A I *C 43 47 *L 0.000986 *D OAI21_X2
*I *54:Z O *C 44 49 *L 0 *D CLKBUF_X1

*CAP
1 *54:Z 1.896e-05
2 *4:2 3.2e-05
3 *4:3 4.642e-05
4 *4:4 0.00010574
5 *4:5 9.132e-05
6 *89:A 1.896e-05

*RES
1 *4:5 *89:A 4
2 *4:5 *4:4 3.5
3 *4:4 *4:3 0.678571
4 *4:3 *4:2 1
5 *54:Z *4:2 4
*END

*D_NET *22 0.00355814

*CONN
*P *22 I *C 44 90 *L 0
*I *90:B1 I *C 44 47 *L 0.00116 *D AOI22_X2

*CAP
1 *22 0.00122434
2 *22:2 0.00123376
3 *90:B1 1.896e-05
4 *22 *21 0.00054054
5 *22:2 *21:2 0.00054054

*RES
1 *22:2 *90:B1 4
2 *22:2 *22 152.196
*END

*D_NET *23 0.00333214

*CONN
*P *23 I *C 44 0 *L 0
*I *73:A1 I *C 44 41 *L 0.00115 *D NAND2_X2

*CAP
1 *23 0.00114119
2 *23:2 0.00116503
3 *23:3 6.939e-05
4 *23:4 5.497e-05
5 *73:A1 1.896e-05
6 *23:2 *20:2 0.00042671
7 *23 *20 0.00042671
8 *23:4 *20:2 1.459e-05
9 *23:3 *20 1.459e-05

*RES
1 *23:4 *73:A1 4
2 *23:3 *23:4 5.5
3 *23:3 *23:2 0.678571
4 *23 *23:2 140.625
*END

*D_NET *21 0.00350332

*CONN
*P *21 I *C 45 90 *L 0
*I *86:A1 I *C 45 47 *L 0.00134 *D AOI22_X2

*CAP
1 *21 0.00119693
2 *21:2 0.00120635
3 *86:A1 1.896e-05
4 *21 *22 0.00054054
5 *21:2 *22:2 0.00054054

*RES
1 *21:2 *86:A1 4
2 *21:2 *21 151.696
*END

*D_NET *20 0.0033593

*CONN
*P *20 I *C 45 0 *L 0
*I *74:A1 I *C 45 42 *L 0.000533 *D AND2_X2

*CAP
1 *20 0.00122416
2 *20:2 0.00123358
3 *74:A1 1.896e-05
4 *20:2 *23:2 0.00042671
5 *20 *23 0.00042671
6 *20:2 *23:4 1.459e-05
7 *20 *23:3 1.459e-05

*RES
1 *20:2 *74:A1 4
2 *20 *20:2 150.125
*END

*D_NET *37 0.000324

*CONN
*I *86:ZN O *C 45 47 *L 0 *D AOI22_X2
*I *56:A I *C 46 49 *L 0.000528 *D CLKBUF_X1

*CAP
1 *86:ZN 1.857e-05
2 *37:2 2.805e-05
3 *37:3 4.687e-05
4 *37:4 6.129e-05
5 *37:5 3.326e-05
6 *56:A 1.896e-05
7 *37:4 *5:3 5.85e-05
8 *37:3 *5:4 5.85e-05

*RES
1 *37:5 *56:A 4
2 *37:4 *37:5 0.678571
3 *37:3 *37:4 4.5
4 *37:2 *37:3 4
5 *86:ZN *37:2 2.06286
*END

*D_NET *5 0.0002153

*CONN
*I *85:A I *C 46 47 *L 0.000986 *D OAI21_X2
*I *53:Z O *C 45 49 *L 0 *D CLKBUF_X1

*CAP
1 *53:Z 9.29e-06
2 *5:2 1.877e-05
3 *5:3 2.564e-05
4 *5:4 2.564e-05
5 *85:A 1.896e-05
6 *5:3 *37:4 5.85e-05
7 *5:4 *37:3 5.85e-05

*RES
1 *5:4 *85:A 4
2 *5:4 *5:3 5
3 *5:2 *5:3 4
4 *53:Z *5:2 1.03143
*END

*D_NET *45 0.00022332

*CONN
*I *85:ZN O *C 46 47 *L 0 *D OAI21_X2
*I *59:A I *C 46 46 *L 0.00044 *D BUF_X32

*CAP
1 *85:ZN 1.896e-05
2 *45:2 2.163e-05
3 *45:3 2.163e-05
4 *45:4 1.843e-05
5 *59:A 8.95e-06
6 *45:2 *36:4 6.686e-05
7 *45:3 *36:2 6.686e-05

*RES
1 *45:4 *59:A 1.03143
2 *45:3 *45:4 4
3 *45:3 *45:2 4
4 *85:ZN *45:2 4
*END

*D_NET *42 0.00014572

*CONN
*I *92:ZN O *C 46 41 *L 0 *D AOI211_X2
*I *76:A I *C 46 41 *L 0.00187 *D INV_X4

*CAP
1 *92:ZN 1.896e-05
2 *42:2 5.39e-05
3 *42:3 5.39e-05
4 *76:A 1.896e-05

*RES
1 *42:3 *76:A 4
2 *42:3 *42:2 2.5
3 *92:ZN *42:2 4
*END

*D_NET *14 0.00015786

*CONN
*I *61:A I *C 47 42 *L 0.00044 *D BUF_X32
*I *58:Z O *C 46 43 *L 0 *D BUF_X32

*CAP
1 *58:Z 1.896e-05
2 *14:2 5.997e-05
3 *14:3 5.997e-05
4 *61:A 1.896e-05

*RES
1 *14:3 *61:A 4
2 *14:3 *14:2 5.5
3 *58:Z *14:2 4
*END

*D_NET *11 0.00017702

*CONN
*I *69:D I *C 47 40 *L 0.000901 *D DFF_X1
*I *61:Z O *C 47 41 *L 0 *D BUF_X32

*CAP
1 *61:Z 1.896e-05
2 *11:2 3.1e-05
3 *11:3 4.542e-05
4 *11:4 3.855e-05
5 *11:5 2.413e-05
6 *69:D 1.896e-05

*RES
1 *11:5 *69:D 4
2 *11:5 *11:4 2
3 *11:4 *11:3 0.678571
4 *11:3 *11:2 2
5 *61:Z *11:2 4
*END

*D_NET *10 0.00018812

*CONN
*I *70:D I *C 49 47 *L 0.000901 *D DFF_X1
*I *62:Z O *C 48 46 *L 0 *D BUF_X32

*CAP
1 *62:Z 1.896e-05
2 *10:2 2.444e-05
3 *10:3 3.886e-05
4 *10:4 5.066e-05
5 *10:5 3.624e-05
6 *70:D 1.896e-05

*RES
1 *10:5 *70:D 4
2 *10:4 *10:5 2.5
3 *10:4 *10:3 0.678571
4 *10:2 *10:3 1.5
5 *62:Z *10:2 4
*END

*D_NET *46 0.0010144

*CONN
*I *87:ZN O *C 43 41 *L 0 *D OAI21_X2
*I *57:A I *C 44 46 *L 0.00044 *D BUF_X32

*CAP
1 *87:ZN 1.896e-05
2 *46:2 2.071e-05
3 *46:3 2.071e-05
4 *46:4 4.575e-05
5 *46:5 5.39e-05
6 *46:6 3.169e-05
7 *46:7 0.0001523
8 *46:8 0.0001523
9 *46:9 1.843e-05
10 *57:A 8.95e-06
11 *46:5 *1:28 1.134e-05
12 *46:4 *1:31 1.134e-05
13 *46:8 *1:11 0.00015044
14 *46:7 *1:8 0.00015044
15 *46:8 *1:8 5.85e-05
16 *46:7 *1:5 5.85e-05
17 *46:8 *1:5 2.507e-05
18 *46:7 *1:3 2.507e-05

*RES
1 *46:9 *57:A 1.03143
2 *46:8 *46:9 4
3 *46:7 *46:8 18.5
4 *46:6 *46:7 4
5 *46:5 *46:6 0.5
6 *46:4 *46:5 2.71429
7 *46:3 *46:4 4
8 *46:2 *46:3 0.5
9 *87:ZN *46:2 4
*END

*D_NET *39 0.0003619

*CONN
*I *73:ZN O *C 44 40 *L 0 *D NAND2_X2
*I *55:A I *C 43 42 *L 0.000528 *D CLKBUF_X1

*CAP
1 *73:ZN 1.896e-05
2 *39:2 3.829e-05
3 *39:3 3.829e-05
4 *39:4 5.155e-05
5 *39:5 5.155e-05
6 *39:6 7.215e-05
7 *39:7 7.215e-05
8 *55:A 1.896e-05

*RES
1 *39:7 *55:A 4
2 *39:6 *39:7 2.5
3 *39:5 *39:6 4
4 *39:5 *39:4 3.39286
5 *39:3 *39:4 4
6 *39:2 *39:3 1
7 *73:ZN *39:2 4
*END

*D_NET *6 0.00027668

*CONN
*I *87:A I *C 43 41 *L 0.000986 *D OAI21_X2
*I *52:Z O *C 43 41 *L 0 *D CLKBUF_X1

*CAP
1 *52:Z 1.896e-05
2 *6:2 2.204e-05
3 *6:3 2.204e-05
4 *6:4 3.52e-05
5 *6:5 3.52e-05
6 *6:6 6.214e-05
7 *6:7 6.214e-05
8 *87:A 1.896e-05

*RES
1 *6:7 *87:A 4
2 *6:7 *6:6 2.5
3 *6:5 *6:6 4
4 *6:4 *6:5 2.03571
5 *6:3 *6:4 4
6 *6:3 *6:2 0.5
7 *52:Z *6:2 4
*END

*D_NET *3 0.00018078

*CONN
*I *55:Z O *C 43 41 *L 0 *D CLKBUF_X1
*I *52:A I *C 43 42 *L 0.000528 *D CLKBUF_X1

*CAP
1 *55:Z 1.896e-05
2 *3:2 1.883e-05
3 *3:3 5.26e-05
4 *3:4 5.26e-05
5 *3:5 1.883e-05
6 *52:A 1.896e-05

*RES
1 *3:5 *52:A 4
2 *3:4 *3:5 4
3 *3:4 *3:3 3.39286
4 *3:2 *3:3 4
5 *55:Z *3:2 4
*END

*D_NET *43 0.00017346

*CONN
*I *92:A I *C 46 42 *L 0.00118 *D AOI211_X2
*I *74:ZN O *C 45 42 *L 0 *D AND2_X2

*CAP
1 *74:ZN 1.896e-05
2 *43:2 1.883e-05
3 *43:3 3.579e-05
4 *43:4 3.579e-05
5 *43:5 1.883e-05
6 *43:6 2.737e-05
7 *92:A 1.789e-05

*RES
1 *43:6 *92:A 2.06286
2 *43:5 *43:6 4
3 *43:4 *43:5 4
4 *43:3 *43:4 2.71429
5 *43:2 *43:3 4
6 *74:ZN *43:2 4
*END

*D_NET *41 0.0006418

*CONN
*I *92:C2 I *C 47 41 *L 0.00147 *D AOI211_X2
*I *84:ZN O *C 46 44 *L 0 *D NOR2_X2
*I *82:A I *C 48 43 *L 0.00105 *D AOI21_X2

*CAP
1 *41:1 4.145e-05
2 *41:2 2.774e-05
3 *41:4 2.774e-05
4 *82:A 1.896e-05
5 *84:ZN 1.035e-05
6 *41:12 1.983e-05
7 *41:11 1.702e-05
8 *41:9 1.702e-05
9 *41:6 3.294e-05
10 *41:3 6.497e-05
11 *41:5 3.964e-05
12 *41:8 3.964e-05
13 *92:C2 1.896e-05
14 *41:1 *18:5 3.494e-05
15 *41:3 *18:8 3.494e-05
16 *41:3 *18:5 2.593e-05
17 *41:6 *18:8 2.593e-05
18 *41:4 *47:12 2.7e-06
19 *41:2 *47:8 2.7e-06
20 *41:4 *47:9 2.34e-06
21 *41:2 *47:5 2.34e-06
22 *41:5 *47:5 6.686e-05
23 *41:8 *47:10 6.686e-05

*RES
1 *84:ZN *41:12 1.03143
2 *41:11 *41:12 4
3 *41:9 *41:11 0.5
4 *41:8 *92:C2 4
5 *41:6 *41:9 4
6 *41:8 *41:5 4
7 *41:4 *82:A 4
8 *41:6 *41:3 3.39286
9 *41:3 *41:5 4
10 *41:2 *41:4 3
11 *41:3 *41:1 4.75
12 *41:1 *41:2 4
*END

*D_NET *51 0.00447643

*CONN
*P *51 O *C 0 43 *L 0
*I *80:A1 I *C 41 43 *L 0.00148 *D NOR3_X2
*I *75:ZN O *C 43 43 *L 0 *D NOR4_X2

*CAP
1 *51 0.00106501
2 *75:ZN 6.502e-05
3 *51:8 7.45e-05
4 *51:7 2.342e-05
5 *51:5 2.342e-05
6 *51:3 2.74e-05
7 *51:2 0.00109241
8 *51:4 1.883e-05
9 *80:A1 1.896e-05
10 *51:2 *19:2 0.00103373
11 *51 *19 0.00103373

*RES
1 *51:8 *75:ZN 7.22
2 *51:7 *51:8 4
3 *51:7 *51:5 1
4 *51:4 *80:A1 4
5 *51:3 *51:5 4
6 *51:2 *51:4 4
7 *51:2 *51:3 1.35714
8 *51 *51:2 149.5
*END

*D_NET *47 0.00149005

*CONN
*I *92:C1 I *C 46 41 *L 0.00151 *D AOI211_X2
*I *82:B2 I *C 48 43 *L 0.00125 *D AOI21_X2
*I *81:A2 I *C 47 44 *L 0.00108 *D NOR2_X2
*I *75:A1 I *C 43 43 *L 0.0017 *D NOR4_X2
*I *69:Q O *C 49 41 *L 0 *D DFF_X1

*CAP
1 *47:1 9.675e-05
2 *47:3 1.883e-05
3 *75:A1 1.896e-05
4 *47:9 3.039e-05
5 *47:13 4.25e-05
6 *81:A2 3.302e-05
7 *47:8 1.305e-05
8 *47:12 1.305e-05
9 *82:B2 1.896e-05
10 *69:Q 1.896e-05
11 *47:15 0.00010145
12 *47:11 0.00010145
13 *47:7 2.98e-05
14 *47:4 7.919e-05
15 *47:2 0.00014614
16 *47:5 4.308e-05
17 *47:10 3.653e-05
18 *47:14 3.796e-05
19 *92:C1 1.896e-05
20 *47:4 *9:5 5.186e-05
21 *47:2 *9:7 5.186e-05
22 *47:2 *18:5 4.668e-05
23 *47:1 *18:8 4.668e-05
24 *47:2 *18:8 4.149e-05
25 *47:1 *18:11 4.149e-05
26 *47:12 *41:4 2.7e-06
27 *47:8 *41:2 2.7e-06
28 *47:9 *41:4 2.34e-06
29 *47:5 *41:2 2.34e-06
30 *47:5 *41:5 6.686e-05
31 *47:10 *41:8 6.686e-05
32 *47:5 *26:11 8.358e-05
33 *47:10 *26:10 8.358e-05

*RES
1 *47:15 *69:Q 4
2 *47:14 *92:C1 4
3 *47:13 *81:A2 3.09429
4 *47:12 *82:B2 4
5 *47:15 *47:11 9
6 *47:14 *47:10 0.678571
7 *47:9 *47:13 4
8 *47:8 *47:12 0.5
9 *47:7 *47:11 4
10 *47:10 *47:5 6
11 *47:5 *47:9 3.5
12 *47:4 *47:8 4
13 *47:4 *47:7 2.03571
14 *47:3 *75:A1 4
15 *47:2 *47:5 4
16 *47:2 *47:4 7.46429
17 *47:1 *47:3 4
18 *47:1 *47:2 12.2143
*END

*D_NET *49 0.00059335

*CONN
*I *91:A1 I *C 44 46 *L 0.00124 *D NOR2_X2
*I *88:B1 I *C 43 44 *L 0.00133 *D AOI21_X2
*I *75:A3 I *C 43 43 *L 0.00145 *D NOR4_X2
*I *71:Q O *C 42 47 *L 0 *D DFF_X1

*CAP
1 *49:1 1.45e-05
2 *49:3 2.871e-05
3 *49:6 2.871e-05
4 *49:8 1.883e-05
5 *75:A3 1.896e-05
6 *49:4 5.858e-05
7 *49:2 6.366e-05
8 *88:B1 1.896e-05
9 *71:Q 1.896e-05
10 *49:13 2.991e-05
11 *49:12 2.991e-05
12 *49:10 5.091e-05
13 *49:7 7.034e-05
14 *91:A1 1.943e-05
15 *49:3 *38:5 1.134e-05
16 *49:6 *38:4 1.134e-05
17 *49:2 *38:6 8.36e-06
18 *49:1 *38:7 8.36e-06
19 *49:2 *38:2 4.179e-05
20 *49:1 *38:3 4.179e-05

*RES
1 *49:13 *71:Q 4
2 *49:12 *49:13 2.5
3 *49:10 *49:12 4
4 *49:8 *75:A3 4
5 *49:10 *49:7 4.12571
6 *49:7 *91:A1 2.06286
7 *49:6 *49:8 4
8 *49:4 *49:7 4
9 *49:6 *49:3 2.03571
10 *49:2 *88:B1 4
11 *49:2 *49:4 7.5
12 *49:1 *49:3 4
13 *49:1 *49:2 3
*END

*D_NET *19 0.00417984

*CONN
*P *19 I *C 0 43 *L 0
*I *79:A I *C 40 43 *L 0.00187 *D INV_X4

*CAP
1 *19 0.00091678
2 *19:2 0.0009262
3 *19:3 1.478e-05
4 *19:4 1.478e-05
5 *19:5 0.00012466
6 *79:A 0.00011518
7 *19:2 *51:2 0.00103373
8 *19 *51 0.00103373

*RES
1 *19:5 *79:A 14.44
2 *19:4 *19:5 4
3 *19:4 *19:3 0.5
4 *19:2 *19:3 4
5 *19 *19:2 135.25
*END

*D_NET *38 0.00060826

*CONN
*I *88:ZN O *C 43 45 *L 0 *D AOI21_X2
*I *87:B1 I *C 43 41 *L 0.0013 *D OAI21_X2

*CAP
1 *88:ZN 1.896e-05
2 *38:2 4.291e-05
3 *38:3 4.291e-05
4 *38:4 2.51e-05
5 *38:5 2.51e-05
6 *38:6 0.00015567
7 *38:7 0.00015567
8 *87:B1 1.896e-05
9 *38:5 *49:3 1.134e-05
10 *38:4 *49:6 1.134e-05
11 *38:6 *49:2 8.36e-06
12 *38:7 *49:1 8.36e-06
13 *38:2 *49:2 4.179e-05
14 *38:3 *49:1 4.179e-05

*RES
1 *38:7 *87:B1 4
2 *38:7 *38:6 10.5
3 *38:5 *38:6 4
4 *38:4 *38:5 1.35714
5 *38:3 *38:4 4
6 *38:3 *38:2 2.5
7 *88:ZN *38:2 4
*END

*D_NET *40 0.00022026

*CONN
*I *80:ZN O *C 42 43 *L 0 *D NOR3_X2
*I *63:A I *C 41 44 *L 0.00044 *D BUF_X32

*CAP
1 *80:ZN 1.896e-05
2 *40:2 1.498e-05
3 *40:3 1.498e-05
4 *40:4 3.807e-05
5 *40:5 3.807e-05
6 *40:6 3.812e-05
7 *40:7 3.812e-05
8 *63:A 1.896e-05

*RES
1 *40:7 *63:A 4
2 *40:6 *40:7 3
3 *40:5 *40:6 4
4 *40:5 *40:4 2.03571
5 *40:3 *40:4 4
6 *40:2 *40:3 0.5
7 *80:ZN *40:2 4
*END

*D_NET *36 0.00090772

*CONN
*I *85:B1 I *C 46 47 *L 0.0013 *D OAI21_X2
*I *83:A I *C 45 44 *L 0.000986 *D OAI21_X2
*I *82:ZN O *C 48 43 *L 0 *D AOI21_X2

*CAP
1 *36:1 1.877e-05
2 *83:A 9.29e-06
3 *82:ZN 1.896e-05
4 *36:10 1.528e-05
5 *36:9 1.528e-05
6 *36:8 6.115e-05
7 *36:7 6.115e-05
8 *36:5 1.491e-05
9 *36:2 3.839e-05
10 *36:4 3.29e-05
11 *85:B1 1.896e-05
12 *36:8 *9:5 6.224e-05
13 *36:7 *9:7 6.224e-05
14 *36:9 *9:1 1.672e-05
15 *36:10 *9:3 1.672e-05
16 *36:4 *45:2 6.686e-05
17 *36:2 *45:3 6.686e-05
18 *36:4 *34:14 2.507e-05
19 *36:2 *34:15 2.507e-05
20 *36:2 *34:14 3.343e-05
21 *36:5 *34:15 3.343e-05
22 *36:2 *9:11 2.507e-05
23 *36:5 *9:10 2.507e-05
24 *36:4 *30:2 6.497e-05
25 *36:2 *30:1 6.497e-05
26 *36:4 *34:1 2.7e-06
27 *36:2 *34:3 2.7e-06
28 *36:4 *30:8 4.28e-06
29 *36:2 *30:10 4.28e-06

*RES
1 *36:10 *82:ZN 4
2 *36:10 *36:9 1
3 *36:8 *36:9 4
4 *36:7 *36:8 8.14286
5 *36:5 *36:7 4
6 *36:4 *85:B1 4
7 *36:5 *36:2 2
8 *36:2 *36:4 10
9 *83:A *36:1 1.03143
10 *36:1 *36:2 4
*END

*D_NET *9 0.0009709

*CONN
*I *88:B2 I *C 43 44 *L 0.00125 *D AOI21_X2
*I *84:A2 I *C 46 43 *L 0.00108 *D NOR2_X2
*I *82:B1 I *C 48 43 *L 0.00133 *D AOI21_X2
*I *78:A I *C 49 44 *L 0.00187 *D INV_X4
*I *63:Z O *C 41 44 *L 0 *D BUF_X32

*CAP
1 *9:1 3.601e-05
2 *9:2 3.257e-05
3 *78:A 2.309e-05
4 *9:7 4.607e-05
5 *9:5 4.607e-05
6 *9:3 3.601e-05
7 *82:B1 1.896e-05
8 *9:12 8.073e-05
9 *9:11 2.321e-05
10 *9:10 3.763e-05
11 *9:8 3.796e-05
12 *84:A2 1.896e-05
13 *63:Z 1.896e-05
14 *9:17 1.883e-05
15 *9:15 3.748e-05
16 *9:13 0.00010879
17 *9:14 1.883e-05
18 *88:B2 1.896e-05
19 *9:5 *36:8 6.224e-05
20 *9:7 *36:7 6.224e-05
21 *9:5 *47:4 5.186e-05
22 *9:7 *47:2 5.186e-05
23 *9:1 *36:9 1.672e-05
24 *9:3 *36:10 1.672e-05
25 *9:11 *36:2 2.507e-05
26 *9:10 *36:5 2.507e-05

*RES
1 *9:17 *63:Z 4
2 *9:15 *9:17 4
3 *9:14 *88:B2 4
4 *9:15 *9:13 2.71429
5 *9:13 *9:14 4
6 *9:13 *9:12 8.14286
7 *9:11 *9:12 4
8 *9:10 *9:11 2.5
9 *9:10 *9:8 0.678571
10 *9:8 *84:A2 4
11 *9:7 *9:8 4
12 *9:7 *9:5 8.82143
13 *9:3 *82:B1 4
14 *9:3 *9:5 4
15 *9:2 *78:A 2.06286
16 *9:3 *9:1 3
17 *9:1 *9:2 4
*END

*D_NET *35 0.00059013

*CONN
*I *88:A I *C 43 44 *L 0.00105 *D AOI21_X2
*I *83:ZN O *C 45 44 *L 0 *D OAI21_X2
*I *77:A I *C 41 44 *L 0.00187 *D INV_X4

*CAP
1 *35:1 9.419e-05
2 *35:3 1.883e-05
3 *77:A 1.896e-05
4 *83:ZN 8.052e-05
5 *35:11 9e-05
6 *35:9 2.824e-05
7 *35:7 2.824e-05
8 *35:4 4.708e-05
9 *35:2 0.00013185
10 *35:5 1.663e-05
11 *35:8 1.663e-05
12 *88:A 1.896e-05

*RES
1 *35:11 *83:ZN 9.28286
2 *35:9 *35:11 4
3 *35:8 *88:A 4
4 *35:7 *35:9 1
5 *35:8 *35:5 0.5
6 *35:4 *35:7 4
7 *35:3 *77:A 4
8 *35:2 *35:5 4
9 *35:2 *35:4 2.71429
10 *35:1 *35:3 4
11 *35:1 *35:2 6.78571
*END

*D_NET *28 0.00045045

*CONN
*I *83:B1 I *C 45 44 *L 0.0013 *D OAI21_X2
*I *81:A1 I *C 47 44 *L 0.00124 *D NOR2_X2
*I *78:ZN O *C 49 45 *L 0 *D INV_X4

*CAP
1 *28:1 1.513e-05
2 *28:3 1.513e-05
3 *81:A1 1.896e-05
4 *78:ZN 5.389e-05
5 *28:11 6.337e-05
6 *28:9 1.944e-05
7 *28:7 1.944e-05
8 *28:4 2.3e-05
9 *28:2 9.894e-05
10 *28:5 8.536e-05
11 *28:8 1.883e-05
12 *83:B1 1.896e-05

*RES
1 *28:11 *78:ZN 6.18857
2 *28:9 *28:11 4
3 *28:8 *83:B1 4
4 *28:7 *28:9 1
5 *28:5 *28:8 4
6 *28:4 *28:7 4
7 *28:3 *81:A1 4
8 *28:5 *28:2 6.78571
9 *28:2 *28:4 1.35714
10 *28:3 *28:1 0.5
11 *28:1 *28:2 4
*END

*D_NET *15 0.00069423

*CONN
*I *65:A I *C 40 42 *L 0.00044 *D BUF_X32
*I *57:Z O *C 44 46 *L 0 *D BUF_X32

*CAP
1 *57:Z 1.896e-05
2 *15:2 1.883e-05
3 *15:3 0.00014052
4 *15:4 0.00014052
5 *15:5 0.00010789
6 *15:6 0.00010789
7 *65:A 1.896e-05
8 *15:3 *27:5 2.018e-05
9 *15:4 *27:4 2.018e-05
10 *15:5 *27:3 5.015e-05
11 *15:6 *27:2 5.015e-05

*RES
1 *15:6 *65:A 4
2 *15:6 *15:5 14.5
3 *15:4 *15:5 4
4 *15:4 *15:3 14.25
5 *15:2 *15:3 4
6 *57:Z *15:2 4
*END

*D_NET *27 0.00052338

*CONN
*I *89:B1 I *C 43 47 *L 0.0013 *D OAI21_X2
*I *77:ZN O *C 41 45 *L 0 *D INV_X4

*CAP
1 *77:ZN 1.896e-05
2 *27:2 8.727e-05
3 *27:3 9.197e-05
4 *27:4 6.061e-05
5 *27:5 6.061e-05
6 *27:6 2.217e-05
7 *27:7 2.217e-05
8 *89:B1 1.896e-05
9 *27:5 *15:3 2.018e-05
10 *27:4 *15:4 2.018e-05
11 *27:3 *15:5 5.015e-05
12 *27:2 *15:6 5.015e-05

*RES
1 *27:7 *89:B1 4
2 *27:6 *27:7 1.5
3 *27:5 *27:6 4
4 *27:4 *27:5 9.5
5 *27:3 *27:4 4
6 *27:2 *27:3 6.5
7 *77:ZN *27:2 4
*END

*D_NET *33 0.00023824

*CONN
*I *91:ZN O *C 44 46 *L 0 *D NOR2_X2
*I *90:A1 I *C 44 47 *L 0.00134 *D AOI22_X2

*CAP
1 *91:ZN 1.896e-05
2 *33:2 3.105e-05
3 *33:3 3.105e-05
4 *33:4 3.599e-05
5 *33:5 3.599e-05
6 *33:6 3.312e-05
7 *33:7 3.312e-05
8 *90:A1 1.896e-05

*RES
1 *33:7 *90:A1 4
2 *33:6 *33:7 1
3 *33:5 *33:6 4
4 *33:4 *33:5 2.03571
5 *33:3 *33:4 4
6 *33:2 *33:3 1.5
7 *91:ZN *33:2 4
*END

*D_NET *12 0.00037854

*CONN
*I *64:A I *C 40 46 *L 0.00044 *D BUF_X32
*I *60:Z O *C 41 49 *L 0 *D BUF_X32

*CAP
1 *60:Z 1.896e-05
2 *12:2 7.011e-05
3 *12:3 7.481e-05
4 *12:4 2.698e-05
5 *12:5 2.698e-05
6 *12:6 7.087e-05
7 *12:7 7.087e-05
8 *64:A 1.896e-05

*RES
1 *12:7 *64:A 4
2 *12:7 *12:6 3.5
3 *12:5 *12:6 4
4 *12:5 *12:4 1.35714
5 *12:3 *12:4 4
6 *12:3 *12:2 5.5
7 *60:Z *12:2 4
*END

*D_NET *1 0.00186966

*CONN
*I *90:B2 I *C 44 47 *L 0.00113 *D AOI22_X2
*I *86:A2 I *C 45 47 *L 0.00125 *D AOI22_X2
*I *84:A1 I *C 45 43 *L 0.00124 *D NOR2_X2
*I *80:A2 I *C 41 43 *L 0.00134 *D NOR3_X2
*I *74:A2 I *C 45 42 *L 0.000563 *D AND2_X2
*I *73:A2 I *C 44 41 *L 0.00105 *D NAND2_X2
*I *66:Z O *C 44 41 *L 0 *D CLKBUF_X1

*CAP
1 *1:1 3.915e-05
2 *1:2 3.915e-05
3 *1:4 2.085e-05
4 *1:7 2.085e-05
5 *74:A2 1.896e-05
6 *1:9 8.596e-05
7 *1:13 8.596e-05
8 *1:17 2.326e-05
9 *1:22 2.326e-05
10 *80:A2 1.896e-05
11 *1:12 8.463e-05
12 *1:16 8.463e-05
13 *1:21 1.883e-05
14 *84:A1 1.896e-05
15 *1:19 3.346e-05
16 *1:24 1.883e-05
17 *86:A2 1.896e-05
18 *66:Z 3.483e-05
19 *1:3 1.93e-05
20 *1:5 2.518e-05
21 *1:8 0.00011559
22 *1:11 0.00010971
23 *1:15 5.303e-05
24 *1:20 2.899e-05
25 *1:25 1.883e-05
26 *90:B2 1.896e-05
27 *1:14 2.535e-05
28 *1:18 3.92e-05
29 *1:23 3.92e-05
30 *1:28 2.019e-05
31 *1:31 2.019e-05
32 *1:32 1.883e-05
33 *73:A2 1.896e-05
34 *1:9 *18:8 5.195e-05
35 *1:13 *18:11 5.195e-05
36 *1:2 *18:8 6.2e-06
37 *1:1 *18:11 6.2e-06
38 *1:9 *18:21 8.3e-07
39 *1:13 *18:23 8.3e-07
40 *1:28 *46:5 1.134e-05
41 *1:31 *46:4 1.134e-05
42 *1:11 *46:8 0.00015044
43 *1:8 *46:7 0.00015044
44 *1:8 *46:8 5.85e-05
45 *1:5 *46:7 5.85e-05
46 *1:5 *46:8 2.507e-05
47 *1:3 *46:7 2.507e-05

*RES
1 *1:32 *73:A2 4
2 *1:31 *1:32 4
3 *1:31 *1:28 2.03571
4 *1:25 *90:B2 4
5 *1:24 *86:A2 4
6 *1:23 *1:28 4
7 *1:22 *80:A2 4
8 *1:21 *84:A1 4
9 *1:20 *1:25 4
10 *1:19 *1:24 4
11 *1:23 *1:18 2.5
12 *1:17 *1:22 2
13 *1:16 *1:21 4
14 *1:20 *1:15 1.35714
15 *1:15 *1:19 2.03571
16 *1:14 *1:18 4
17 *1:13 *1:17 4
18 *1:12 *1:16 4.75
19 *1:11 *1:15 4
20 *66:Z *1:14 1.03143
21 *1:13 *1:9 10.1786
22 *1:8 *1:12 4
23 *1:8 *1:11 12.5
24 *1:7 *74:A2 4
25 *1:5 *1:9 4
26 *1:5 *1:8 3.5
27 *1:7 *1:4 1
28 *1:3 *66:Z 4
29 *1:3 *1:5 1.5
30 *1:2 *1:4 4
31 *1:1 *1:3 4
32 *1:1 *1:2 3.39286
*END

*D_NET *30 0.00063492

*CONN
*I *86:B2 I *C 45 47 *L 0.00113 *D AOI22_X2
*I *85:B2 I *C 46 47 *L 0.00116 *D OAI21_X2
*I *83:B2 I *C 45 44 *L 0.00116 *D OAI21_X2
*I *70:QN O *C 46 47 *L 0 *D DFF_X1

*CAP
1 *30:1 7.51e-05
2 *30:3 2.399e-05
3 *30:6 2.399e-05
4 *30:8 1.843e-05
5 *30:10 1.843e-05
6 *83:B2 1.896e-05
7 *70:QN 9.29e-06
8 *85:B2 1.877e-05
9 *30:11 1.864e-05
10 *30:9 1.864e-05
11 *30:7 2.533e-05
12 *30:4 2.533e-05
13 *30:2 7.51e-05
14 *86:B2 1.896e-05
15 *30:7 *34:4 4.537e-05
16 *30:4 *34:2 4.537e-05
17 *30:11 *34:7 8.36e-06
18 *30:9 *34:9 8.36e-06
19 *30:2 *36:4 6.497e-05
20 *30:1 *36:2 6.497e-05
21 *30:8 *36:4 4.28e-06
22 *30:10 *36:2 4.28e-06

*RES
1 *85:B2 *70:QN 1.03143
2 *30:11 *85:B2 4
3 *30:10 *83:B2 4
4 *30:9 *30:11 0.5
5 *30:10 *30:8 1
6 *30:7 *30:9 4
7 *30:6 *30:8 4
8 *30:4 *30:7 2.71429
9 *30:6 *30:3 1.35714
10 *30:2 *86:B2 4
11 *30:2 *30:4 4
12 *30:1 *30:3 4
13 *30:1 *30:2 8.5
*END

*D_NET *34 0.00110233

*CONN
*I *92:B I *C 46 41 *L 0.00126 *D AOI211_X2
*I *90:A2 I *C 44 47 *L 0.00125 *D AOI22_X2
*I *86:B1 I *C 45 47 *L 0.00116 *D AOI22_X2
*I *81:ZN O *C 47 44 *L 0 *D NOR2_X2

*CAP
1 *34:1 1.305e-05
2 *34:3 1.305e-05
3 *86:B1 1.896e-05
4 *34:9 5.246e-05
5 *34:7 5.246e-05
6 *34:4 3.408e-05
7 *34:2 6.008e-05
8 *34:5 3.542e-05
9 *34:8 1.883e-05
10 *90:A2 1.896e-05
11 *81:ZN 4.642e-05
12 *34:11 7.292e-05
13 *34:13 2.65e-05
14 *34:14 6.143e-05
15 *34:15 6.143e-05
16 *92:B 1.896e-05
17 *34:4 *30:7 4.537e-05
18 *34:2 *30:4 4.537e-05
19 *34:7 *48:10 5.015e-05
20 *34:9 *48:7 5.015e-05
21 *34:7 *30:11 8.36e-06
22 *34:9 *30:9 8.36e-06
23 *34:14 *26:11 8.358e-05
24 *34:15 *26:10 8.358e-05
25 *34:14 *36:4 2.507e-05
26 *34:15 *36:2 2.507e-05
27 *34:14 *36:2 3.343e-05
28 *34:15 *36:5 3.343e-05
29 *34:1 *36:4 2.7e-06
30 *34:3 *36:2 2.7e-06

*RES
1 *34:15 *92:B 4
2 *34:15 *34:14 11.5
3 *34:13 *34:14 4
4 *34:13 *34:11 2.06286
5 *34:11 *81:ZN 5.15714
6 *34:9 *34:11 4
7 *34:8 *90:A2 4
8 *34:9 *34:7 8.5
9 *34:5 *34:8 4
10 *34:4 *34:7 4
11 *34:3 *86:B1 4
12 *34:5 *34:2 2.71429
13 *34:2 *34:4 4.07143
14 *34:3 *34:1 0.5
15 *34:1 *34:2 4
*END

*D_NET *44 0.00047027

*CONN
*I *89:ZN O *C 43 47 *L 0 *D OAI21_X2
*I *60:A I *C 40 49 *L 0.00044 *D BUF_X32

*CAP
1 *89:ZN 1.533e-05
2 *44:2 2.481e-05
3 *44:3 3.174e-05
4 *44:4 3.174e-05
5 *44:5 0.00010593
6 *44:6 0.00010593
7 *44:7 1.883e-05
8 *60:A 1.896e-05
9 *44:4 *32:4 5.85e-05
10 *44:3 *32:3 5.85e-05

*RES
1 *44:7 *60:A 4
2 *44:6 *44:7 4
3 *44:6 *44:5 9.5
4 *44:4 *44:5 4
5 *44:3 *44:4 3.5
6 *44:2 *44:3 4
7 *44:2 *89:ZN 1.03143
*END

*D_NET *2 0.00016724

*CONN
*I *56:Z O *C 46 49 *L 0 *D CLKBUF_X1
*I *53:A I *C 45 49 *L 0.000528 *D CLKBUF_X1

*CAP
1 *56:Z 1.896e-05
2 *2:2 1.883e-05
3 *2:3 4.583e-05
4 *2:4 4.583e-05
5 *2:5 1.883e-05
6 *53:A 1.896e-05

*RES
1 *2:5 *53:A 4
2 *2:4 *2:5 4
3 *2:4 *2:3 3.39286
4 *2:2 *2:3 4
5 *56:Z *2:2 4
*END

*D_NET *48 0.00086971

*CONN
*I *91:A2 I *C 44 46 *L 0.00108 *D NOR2_X2
*I *75:A2 I *C 43 43 *L 0.00153 *D NOR4_X2
*I *70:Q O *C 47 47 *L 0 *D DFF_X1

*CAP
1 *48:1 5.09e-05
2 *48:3 0.00013226
3 *48:6 0.00013226
4 *48:9 1.148e-05
5 *48:11 1.148e-05
6 *48:13 5.177e-05
7 *48:15 5.177e-05
8 *75:A2 1.896e-05
9 *70:Q 9.29e-06
10 *48:12 1.877e-05
11 *48:10 2.058e-05
12 *48:7 2.058e-05
13 *48:4 8.002e-05
14 *48:2 0.0001215
15 *48:5 1.883e-05
16 *91:A2 1.896e-05
17 *48:10 *34:7 5.015e-05
18 *48:7 *34:9 5.015e-05

*RES
1 *48:15 *75:A2 4
2 *48:15 *48:13 2.5
3 *48:12 *70:Q 1.03143
4 *48:11 *48:13 4
5 *48:10 *48:12 4
6 *48:11 *48:9 0.142857
7 *48:7 *48:10 3
8 *48:6 *48:9 4
9 *48:5 *91:A2 4
10 *48:4 *48:7 4
11 *48:6 *48:3 3.57
12 *48:2 *48:5 4
13 *48:2 *48:4 9.5
14 *48:1 *48:3 4
15 *48:1 *48:2 3.92857
*END

*D_NET *24 0.00508878

*CONN
*P *24 I *C 44 0 *L 0
*I *66:A I *C 44 42 *L 0.000528 *D CLKBUF_X1

*CAP
1 *24 0.00142084
2 *24:2 0.00143078
3 *24:3 2.69e-05
4 *24:4 2.69e-05
5 *24:5 6.747e-05
6 *24:6 6.747e-05
7 *66:A 1.896e-05
8 *24:2 *16:6 0.00101473
9 *24 *16:5 0.00101473

*RES
1 *24:6 *66:A 4
2 *24:5 *24:6 2
3 *24:4 *24:5 4
4 *24:4 *24:3 0.75
5 *24:2 *24:3 4
6 *24 *24:2 62.16
*END

*D_NET *16 0.00495661

*CONN
*P *16 I *C 44 0 *L 0
*I *68:A I *C 44 41 *L 0.014 *D INV_X32

*CAP
1 *16 1.019e-05
2 *16:2 1.961e-05
3 *16:3 9.78e-06
4 *16:4 9.78e-06
5 *16:5 0.00141019
6 *16:6 0.00141019
7 *16:7 9.81e-06
8 *16:8 9.81e-06
9 *16:9 1.883e-05
10 *68:A 1.896e-05
11 *16:6 *24:2 0.00101473
12 *16:5 *24 0.00101473

*RES
1 *16:9 *68:A 4
2 *16:8 *16:9 4
3 *16:8 *16:7 0.0357143
4 *16:6 *16:7 4
5 *16:5 *16:6 60.9
6 *16:4 *16:5 4
7 *16:3 *16:4 0.0357143
8 *16:2 *16:3 4
9 *16 *16:2 0.625
*END

*D_NET *17 0.00030947

*CONN
*I *68:ZN O *C 45 41 *L 0 *D INV_X32
*I *67:A I *C 44 43 *L 0.00709 *D INV_X16

*CAP
1 *68:ZN 1.896e-05
2 *17:2 1.796e-05
3 *17:3 1.796e-05
4 *17:4 1.632e-05
5 *17:5 1.632e-05
6 *17:6 8.14e-05
7 *17:7 8.14e-05
8 *17:8 1.068e-05
9 *17:9 1.068e-05
10 *17:10 1.883e-05
11 *67:A 1.896e-05

*RES
1 *17:10 *67:A 4
2 *17:9 *17:10 4
3 *17:9 *17:8 0.0357143
4 *17:7 *17:8 4
5 *17:6 *17:7 3.57
6 *17:5 *17:6 4
7 *17:5 *17:4 0.642857
8 *17:3 *17:4 4
9 *17:2 *17:3 0.5
10 *68:ZN *17:2 4
*END

*D_NET *26 0.00065456

*CONN
*I *76:ZN O *C 46 40 *L 0 *D INV_X4
*I *58:A I *C 46 43 *L 0.00044 *D BUF_X32

*CAP
1 *76:ZN 1.896e-05
2 *26:2 5.83e-05
3 *26:3 5.83e-05
4 *26:4 1.594e-05
5 *26:5 1.594e-05
6 *26:6 3.874e-05
7 *26:7 3.874e-05
8 *26:8 1.022e-05
9 *26:9 1.022e-05
10 *26:10 1.796e-05
11 *26:11 1.796e-05
12 *58:A 1.896e-05
13 *26:11 *47:5 8.358e-05
14 *26:10 *47:10 8.358e-05
15 *26:11 *34:14 8.358e-05
16 *26:10 *34:15 8.358e-05

*RES
1 *26:11 *58:A 4
2 *26:10 *26:11 5
3 *26:9 *26:10 4
4 *26:8 *26:9 0.0714286
5 *26:7 *26:8 4
6 *26:6 *26:7 0.84
7 *26:5 *26:6 4
8 *26:4 *26:5 0.607143
9 *26:3 *26:4 4
10 *26:2 *26:3 2
11 *76:ZN *26:2 4
*END

*D_NET *18 0.00207099

*CONN
*I *72:CK I *C 41 41 *L 0.001 *D DFF_X1
*I *71:CK I *C 41 47 *L 0.001 *D DFF_X1
*I *70:CK I *C 48 47 *L 0.001 *D DFF_X1
*I *69:CK I *C 48 41 *L 0.001 *D DFF_X1
*I *67:ZN O *C 45 43 *L 0 *D INV_X16

*CAP
1 *18:1 0.00020715
2 *18:2 1.12e-05
3 *18:4 1.12e-05
4 *18:7 1.883e-05
5 *70:CK 1.896e-05
6 *18:17 0.00017001
7 *18:20 1.808e-05
8 *18:22 1.808e-05
9 *18:24 1.883e-05
10 *71:CK 1.896e-05
11 *18:11 6.136e-05
12 *18:14 0.00024417
13 *18:18 7.416e-05
14 *18:21 1.473e-05
15 *18:23 1.473e-05
16 *18:25 1.883e-05
17 *72:CK 1.896e-05
18 *67:ZN 1.896e-05
19 *18:12 1.883e-05
20 *18:8 0.00010331
21 *18:5 5.137e-05
22 *18:3 0.00032546
23 *18:6 0.00011831
24 *18:9 1.134e-05
25 *18:13 1.134e-05
26 *18:16 1.883e-05
27 *69:CK 1.896e-05
28 *18:5 *47:2 4.668e-05
29 *18:8 *47:1 4.668e-05
30 *18:8 *47:2 4.149e-05
31 *18:11 *47:1 4.149e-05
32 *18:5 *41:1 3.494e-05
33 *18:8 *41:3 3.494e-05
34 *18:5 *41:3 2.593e-05
35 *18:8 *41:6 2.593e-05
36 *18:8 *1:9 5.195e-05
37 *18:11 *1:13 5.195e-05
38 *18:8 *1:2 6.2e-06
39 *18:11 *1:1 6.2e-06
40 *18:21 *1:9 8.3e-07
41 *18:23 *1:13 8.3e-07

*RES
1 *18:25 *72:CK 4
2 *18:24 *71:CK 4
3 *18:23 *18:25 4
4 *18:22 *18:24 4
5 *18:23 *18:21 0.571429
6 *18:22 *18:20 0.571429
7 *18:18 *18:21 4
8 *18:17 *18:20 4
9 *18:16 *69:CK 4
10 *18:18 *18:14 3.36
11 *18:14 *18:17 6.09
12 *18:13 *18:16 4
13 *18:12 *67:ZN 4
14 *18:11 *18:14 4
15 *18:9 *18:13 0.178571
16 *18:8 *18:12 4
17 *18:11 *18:8 11.6429
18 *18:7 *70:CK 4
19 *18:6 *18:9 4
20 *18:8 *18:5 11.3571
21 *18:4 *18:7 4
22 *18:6 *18:3 3.36
23 *18:3 *18:5 4
24 *18:2 *18:4 0.178571
25 *18:3 *18:1 6.09
26 *18:1 *18:2 4
*END

